@<TRIPOS>MOLECULE
query molecule
   29    31     1     0     0
SMALL
NO_CHARGE

@<TRIPOS>ATOM
      1 C1        -39.2243 -164.9607  306.5476 C.ar      1 MOL     0.0777
      2 O2        -38.3202 -165.9424  306.2912 O.3       1 MOL    -0.3605
      3 C3        -39.3270 -163.8752  305.6912 C.ar      1 MOL     0.0376
      4 C4        -40.2454 -162.8766  305.9526 C.ar      1 MOL    -0.0372
      5 C5        -41.0613 -162.9615  307.0625 C.ar      1 MOL     0.0379
      6 C6        -40.9662 -164.0498  307.9246 C.ar      1 MOL     0.0821
      7 O7        -41.7993 -164.1001  308.9964 O.3       1 MOL    -0.3395
      8 C8        -41.5092 -165.0201  310.0498 C.3       1 MOL     0.0730
      9 C9        -42.7185 -165.1584  310.9769 C.3       1 MOL     0.0428
     10 C10       -40.3049 -164.5112  310.8445 C.3       1 MOL     0.0428
     11 C11       -41.1794 -166.3777  309.4266 C.3       1 MOL     0.0329
     12 C13       -39.9051 -166.2332  308.5824 C.3       1 MOL     0.0348
     13 C15       -40.0420 -165.0484  307.6669 C.ar      1 MOL     0.0162
     14 C16       -39.7223 -167.5220  307.7800 C.3       1 MOL     0.0390
     15 C17       -39.8195 -168.7041  308.7036 C.2       1 MOL    -0.0767
     16 C18       -40.3347 -168.6582  309.8910 C.2       1 MOL    -0.0277
     17 C19       -40.9067 -167.4165  310.5157 C.3       1 MOL     0.0342
     18 C20       -39.2832 -170.0259  308.2174 C.3       1 MOL     0.0389
     19 C21       -40.3559 -161.6937  305.0254 C.3       1 MOL    -0.0102
     20 C22       -41.3465 -162.0152  303.9045 C.3       1 MOL     0.0110
     21 C23       -42.7096 -162.3552  304.5104 C.3       1 MOL     0.0009
     22 C24       -43.8189 -161.8123  303.6073 C.3       1 MOL     0.0002
     23 C25       -45.1821 -162.1843  304.1940 C.3       1 MOL     0.0009
     24 C26       -45.8382 -163.2554  303.3204 C.3       1 MOL     0.0115
     25 C27       -46.0926 -164.5107  304.1572 C.3       1 MOL     0.0805
     26 Br28      -47.8211 -165.2978  303.6493 Br        1 MOL    -0.0928
     27 C29       -40.8501 -160.4761  305.8090 C.3       1 MOL     0.0159
     28 C30       -38.9837 -161.3890  304.4215 C.3       1 MOL     0.0159
     29 H2        -37.5639 -165.5695  305.8322 H         1 MOL     0.2183
@<TRIPOS>BOND
     1    1   13 ar
     2    1    2 1 
     3    1    3 ar
     4    3    4 ar
     5    4    5 ar
     6    4   19 1 
     7    5    6 ar
     8    6   13 ar
     9    6    7 1 
    10    7    8 1 
    11    8    9 1 
    12    8   10 1 
    13    8   11 1 
    14   11   17 1 
    15   11   12 1 
    16   12   13 1 
    17   12   14 1 
    18   14   15 1 
    19   15   16 2 
    20   15   18 1 
    21   16   17 1 
    22   19   20 1 
    23   19   27 1 
    24   19   28 1 
    25   20   21 1 
    26   21   22 1 
    27   22   23 1 
    28   23   24 1 
    29   24   25 1 
    30   25   26 1 
    31   29    2 1 
@<TRIPOS>SUBSTRUCTURE
1 MOL         1
@<TRIPOS>MOLECULE
query molecule
   29    31     1     0     0
SMALL
NO_CHARGE

@<TRIPOS>ATOM
      1 C1        -39.4392 -164.7080  306.5512 C.ar      1 MOL     0.0777
      2 O2        -38.6130 -165.7552  306.2911 O.3       1 MOL    -0.3605
      3 C3        -39.5133 -163.6486  305.6598 C.ar      1 MOL     0.0376
      4 C4        -40.3523 -162.5834  305.9247 C.ar      1 MOL    -0.0372
      5 C5        -41.1178 -162.5758  307.0732 C.ar      1 MOL     0.0379
      6 C6        -41.0511 -163.6372  307.9707 C.ar      1 MOL     0.0821
      7 O7        -41.8333 -163.5952  309.0805 O.3       1 MOL    -0.3395
      8 C8        -41.5524 -164.4949  310.1537 C.3       1 MOL     0.0730
      9 C9        -42.7221 -164.5211  311.1397 C.3       1 MOL     0.0428
     10 C10       -40.2812 -164.0388  310.8727 C.3       1 MOL     0.0428
     11 C11       -41.3403 -165.8922  309.5681 C.3       1 MOL     0.0329
     12 C13       -40.1015 -165.8613  308.6617 C.3       1 MOL     0.0348
     13 C15       -40.2061 -164.7026  307.7091 C.ar      1 MOL     0.0162
     14 C16       -40.0401 -167.1865  307.9012 C.3       1 MOL     0.0390
     15 C17       -40.1683 -168.3267  308.8725 C.2       1 MOL    -0.0767
     16 C18       -40.6219 -168.2057  310.0796 C.2       1 MOL    -0.0277
     17 C19       -41.0827 -166.9080  310.6822 C.3       1 MOL     0.0342
     18 C20       -39.7416 -169.6970  308.4128 C.3       1 MOL     0.0389
     19 C21       -40.4314 -161.4288  304.9594 C.3       1 MOL    -0.0102
     20 C22       -41.3391 -161.8058  303.7867 C.3       1 MOL     0.0110
     21 C23       -42.6230 -162.4444  304.3204 C.3       1 MOL     0.0009
     22 C24       -43.8103 -161.9913  303.4682 C.3       1 MOL     0.0002
     23 C25       -45.1117 -162.2414  304.2328 C.3       1 MOL     0.0009
     24 C26       -46.0862 -163.0142  303.3418 C.3       1 MOL     0.0115
     25 C27       -46.3060 -164.4136  303.9200 C.3       1 MOL     0.0805
     26 Br28      -48.0651 -165.0867  303.3564 Br        1 MOL    -0.0928
     27 C29       -41.0049 -160.2041  305.6749 C.3       1 MOL     0.0159
     28 C30       -39.0307 -161.1045  304.4363 C.3       1 MOL     0.0159
     29 H2        -37.7096 -165.4396  306.2157 H         1 MOL     0.2183
@<TRIPOS>BOND
     1    1   13 ar
     2    1    2 1 
     3    1    3 ar
     4    3    4 ar
     5    4    5 ar
     6    4   19 1 
     7    5    6 ar
     8    6   13 ar
     9    6    7 1 
    10    7    8 1 
    11    8    9 1 
    12    8   10 1 
    13    8   11 1 
    14   11   17 1 
    15   11   12 1 
    16   12   13 1 
    17   12   14 1 
    18   14   15 1 
    19   15   16 2 
    20   15   18 1 
    21   16   17 1 
    22   19   20 1 
    23   19   27 1 
    24   19   28 1 
    25   20   21 1 
    26   21   22 1 
    27   22   23 1 
    28   23   24 1 
    29   24   25 1 
    30   25   26 1 
    31   29    2 1 
@<TRIPOS>SUBSTRUCTURE
1 MOL         1
@<TRIPOS>MOLECULE
query molecule
   29    31     1     0     0
SMALL
NO_CHARGE

@<TRIPOS>ATOM
      1 C1        -39.3270 -164.9681  306.7201 C.ar      1 MOL     0.0777
      2 O2        -38.4750 -165.9937  306.4572 O.3       1 MOL    -0.3605
      3 C3        -39.4197 -163.9034  305.8368 C.ar      1 MOL     0.0376
      4 C4        -40.2850 -162.8601  306.1046 C.ar      1 MOL    -0.0372
      5 C5        -41.0580 -162.8797  307.2479 C.ar      1 MOL     0.0379
      6 C6        -40.9727 -163.9467  308.1372 C.ar      1 MOL     0.0821
      7 O7        -41.7630 -163.9320  309.2420 O.3       1 MOL    -0.3395
      8 C8        -41.4684 -164.8338  310.3097 C.3       1 MOL     0.0730
      9 C9        -42.6437 -164.8951  311.2874 C.3       1 MOL     0.0428
     10 C10       -40.2130 -164.3542  311.0410 C.3       1 MOL     0.0428
     11 C11       -41.2201 -166.2209  309.7143 C.3       1 MOL     0.0329
     12 C13       -39.9763 -166.1538  308.8166 C.3       1 MOL     0.0348
     13 C15       -40.1014 -164.9901  307.8728 C.ar      1 MOL     0.0162
     14 C16       -39.8792 -167.4709  308.0459 C.3       1 MOL     0.0390
     15 C17       -39.9872 -168.6217  309.0070 C.2       1 MOL    -0.0767
     16 C18       -40.4515 -168.5212  310.2119 C.2       1 MOL    -0.0277
     17 C19       -40.9464 -167.2396  310.8219 C.3       1 MOL     0.0342
     18 C20       -39.5258 -169.9779  308.5392 C.3       1 MOL     0.0389
     19 C21       -40.3844 -161.6998  305.1481 C.3       1 MOL    -0.0102
     20 C22       -41.3090 -162.0733  303.9876 C.3       1 MOL     0.0110
     21 C23       -42.7105 -162.3673  304.5264 C.3       1 MOL     0.0009
     22 C24       -43.7564 -161.8341  303.5452 C.3       1 MOL     0.0002
     23 C25       -45.1574 -162.1608  304.0659 C.3       1 MOL     0.0009
     24 C26       -45.7858 -163.2479  303.1917 C.3       1 MOL     0.0115
     25 C27       -46.1122 -164.4696  304.0529 C.3       1 MOL     0.0805
     26 Br28      -47.8256 -165.2406  303.4740 Br        1 MOL    -0.0928
     27 C29       -40.9518 -160.4822  305.8806 C.3       1 MOL     0.0159
     28 C30       -38.9937 -161.3659  304.6049 C.3       1 MOL     0.0159
     29 H2        -38.5333 -166.2287  305.5282 H         1 MOL     0.2183
@<TRIPOS>BOND
     1    1   13 ar
     2    1    2 1 
     3    1    3 ar
     4    3    4 ar
     5    4    5 ar
     6    4   19 1 
     7    5    6 ar
     8    6   13 ar
     9    6    7 1 
    10    7    8 1 
    11    8    9 1 
    12    8   10 1 
    13    8   11 1 
    14   11   17 1 
    15   11   12 1 
    16   12   13 1 
    17   12   14 1 
    18   14   15 1 
    19   15   16 2 
    20   15   18 1 
    21   16   17 1 
    22   19   20 1 
    23   19   27 1 
    24   19   28 1 
    25   20   21 1 
    26   21   22 1 
    27   22   23 1 
    28   23   24 1 
    29   24   25 1 
    30   25   26 1 
    31   29    2 1 
@<TRIPOS>SUBSTRUCTURE
1 MOL         1
@<TRIPOS>MOLECULE
query molecule
   29    31     1     0     0
SMALL
NO_CHARGE

@<TRIPOS>ATOM
      1 C1        -39.5010 -164.6812  306.7045 C.ar      1 MOL     0.0777
      2 O2        -38.7273 -165.7756  306.4796 O.3       1 MOL    -0.3605
      3 C3        -39.5686 -163.6754  305.7525 C.ar      1 MOL     0.0376
      4 C4        -40.3542 -162.5623  305.9816 C.ar      1 MOL    -0.0372
      5 C5        -41.0730 -162.4535  307.1549 C.ar      1 MOL     0.0379
      6 C6        -41.0127 -163.4606  308.1134 C.ar      1 MOL     0.0821
      7 O7        -41.7484 -163.3193  309.2465 O.3       1 MOL    -0.3395
      8 C8        -41.4609 -164.1633  310.3624 C.3       1 MOL     0.0730
      9 C9        -42.5911 -164.0813  311.3905 C.3       1 MOL     0.0428
     10 C10       -40.1456 -163.7176  311.0043 C.3       1 MOL     0.0428
     11 C11       -41.3269 -165.6011  309.8571 C.3       1 MOL     0.0329
     12 C13       -40.1244 -165.6763  308.9054 C.3       1 MOL     0.0348
     13 C15       -40.2209 -164.5740  307.8874 C.ar      1 MOL     0.0162
     14 C16       -40.1449 -167.0465  308.2268 C.3       1 MOL     0.0390
     15 C17       -40.2792 -168.1196  309.2710 C.2       1 MOL    -0.0767
     16 C18       -40.6799 -167.9071  310.4841 C.2       1 MOL    -0.0277
     17 C19       -41.0655 -166.5574  311.0217 C.3       1 MOL     0.0342
     18 C20       -39.9248 -169.5316  308.8817 C.3       1 MOL     0.0389
     19 C21       -40.4260 -161.4659  304.9501 C.3       1 MOL    -0.0102
     20 C22       -41.3292 -161.9087  303.7972 C.3       1 MOL     0.0110
     21 C23       -42.7117 -162.2716  304.3429 C.3       1 MOL     0.0009
     22 C24       -43.7765 -161.9404  303.2953 C.3       1 MOL     0.0002
     23 C25       -45.1673 -162.1420  303.9003 C.3       1 MOL     0.0009
     24 C26       -45.8987 -163.2498  303.1396 C.3       1 MOL     0.0115
     25 C27       -46.2365 -164.3912  304.1008 C.3       1 MOL     0.0805
     26 Br28      -48.0169 -165.1053  303.6703 Br        1 MOL    -0.0928
     27 C29       -40.9997 -160.2003  305.5902 C.3       1 MOL     0.0159
     28 C30       -39.0221 -161.1758  304.4156 C.3       1 MOL     0.0159
     29 H2        -38.6048 -165.8927  305.5347 H         1 MOL     0.2183
@<TRIPOS>BOND
     1    1   13 ar
     2    1    2 1 
     3    1    3 ar
     4    3    4 ar
     5    4    5 ar
     6    4   19 1 
     7    5    6 ar
     8    6   13 ar
     9    6    7 1 
    10    7    8 1 
    11    8    9 1 
    12    8   10 1 
    13    8   11 1 
    14   11   17 1 
    15   11   12 1 
    16   12   13 1 
    17   12   14 1 
    18   14   15 1 
    19   15   16 2 
    20   15   18 1 
    21   16   17 1 
    22   19   20 1 
    23   19   27 1 
    24   19   28 1 
    25   20   21 1 
    26   21   22 1 
    27   22   23 1 
    28   23   24 1 
    29   24   25 1 
    30   25   26 1 
    31   29    2 1 
@<TRIPOS>SUBSTRUCTURE
1 MOL         1
@<TRIPOS>MOLECULE
query molecule
   29    31     1     0     0
SMALL
NO_CHARGE

@<TRIPOS>ATOM
      1 C1        -39.2397 -165.0597  306.6093 C.ar      1 MOL     0.0777
      2 O2        -38.3583 -166.0434  306.2894 O.3       1 MOL    -0.3605
      3 C3        -39.3985 -163.9725  305.7635 C.ar      1 MOL     0.0376
      4 C4        -40.2937 -162.9719  306.0893 C.ar      1 MOL    -0.0372
      5 C5        -41.0310 -163.0563  307.2530 C.ar      1 MOL     0.0379
      6 C6        -40.8794 -164.1462  308.1049 C.ar      1 MOL     0.0821
      7 O7        -41.6363 -164.1959  309.2318 O.3       1 MOL    -0.3395
      8 C8        -41.2766 -165.1182  310.2613 C.3       1 MOL     0.0730
      9 C9        -42.4191 -165.2546  311.2698 C.3       1 MOL     0.0428
     10 C10       -40.0186 -164.6139  310.9713 C.3       1 MOL     0.0428
     11 C11       -40.9946 -166.4758  309.6149 C.3       1 MOL     0.0329
     12 C13       -39.7815 -166.3335  308.6846 C.3       1 MOL     0.0348
     13 C15       -39.9781 -165.1468  307.7824 C.ar      1 MOL     0.0162
     14 C16       -39.6584 -167.6216  307.8697 C.3       1 MOL     0.0390
     15 C17       -39.6947 -168.8048  308.7962 C.2       1 MOL    -0.0767
     16 C18       -40.1262 -168.7594  310.0165 C.2       1 MOL    -0.0277
     17 C19       -40.6501 -167.5170  310.6810 C.3       1 MOL     0.0342
     18 C20       -39.1972 -170.1272  308.2721 C.3       1 MOL     0.0389
     19 C21       -40.4649 -161.7872  305.1736 C.3       1 MOL    -0.0102
     20 C22       -41.5293 -162.1054  304.1216 C.3       1 MOL     0.0110
     21 C23       -42.7444 -162.7398  304.8012 C.3       1 MOL     0.0009
     22 C24       -44.0171 -162.0272  304.3391 C.3       1 MOL     0.0002
     23 C25       -44.5858 -162.7434  303.1125 C.3       1 MOL     0.0009
     24 C26       -46.0855 -162.9755  303.3071 C.3       1 MOL     0.0115
     25 C27       -46.4848 -164.3021  302.6580 C.3       1 MOL     0.0805
     26 Br28      -48.1007 -165.0001  303.5336 Br        1 MOL    -0.0928
     27 C29       -40.9032 -160.5703  305.9907 C.3       1 MOL     0.0159
     28 C30       -39.1361 -161.4833  304.4789 C.3       1 MOL     0.0159
     29 H2        -37.5198 -165.6518  306.0345 H         1 MOL     0.2183
@<TRIPOS>BOND
     1    1   13 ar
     2    1    2 1 
     3    1    3 ar
     4    3    4 ar
     5    4    5 ar
     6    4   19 1 
     7    5    6 ar
     8    6   13 ar
     9    6    7 1 
    10    7    8 1 
    11    8    9 1 
    12    8   10 1 
    13    8   11 1 
    14   11   17 1 
    15   11   12 1 
    16   12   13 1 
    17   12   14 1 
    18   14   15 1 
    19   15   16 2 
    20   15   18 1 
    21   16   17 1 
    22   19   20 1 
    23   19   27 1 
    24   19   28 1 
    25   20   21 1 
    26   21   22 1 
    27   22   23 1 
    28   23   24 1 
    29   24   25 1 
    30   25   26 1 
    31   29    2 1 
@<TRIPOS>SUBSTRUCTURE
1 MOL         1
@<TRIPOS>MOLECULE
query molecule
   29    31     1     0     0
SMALL
NO_CHARGE

@<TRIPOS>ATOM
      1 C1        -41.6088 -163.9469  308.4368 C.ar      1 MOL     0.0777
      2 O2        -42.4063 -163.7202  309.5135 O.3       1 MOL    -0.3605
      3 C3        -41.4833 -162.9772  307.4537 C.ar      1 MOL     0.0376
      4 C4        -40.6735 -163.2081  306.3584 C.ar      1 MOL    -0.0372
      5 C5        -39.9880 -164.4007  306.2450 C.ar      1 MOL     0.0379
      6 C6        -40.1065 -165.3771  307.2295 C.ar      1 MOL     0.0821
      7 O7        -39.4021 -166.5296  307.0849 O.3       1 MOL    -0.3395
      8 C8        -39.7476 -167.6528  307.8967 C.3       1 MOL     0.0730
      9 C9        -38.6475 -168.7138  307.8246 C.3       1 MOL     0.0428
     10 C10       -41.0686 -168.2443  307.4008 C.3       1 MOL     0.0428
     11 C11       -39.9073 -167.1728  309.3405 C.3       1 MOL     0.0329
     12 C13       -41.0818 -166.1859  309.4021 C.3       1 MOL     0.0348
     13 C15       -40.9226 -165.1492  308.3248 C.ar      1 MOL     0.0162
     14 C16       -41.0798 -165.5363  310.7864 C.3       1 MOL     0.0390
     15 C17       -41.0083 -166.6056  311.8405 C.2       1 MOL    -0.0767
     16 C18       -40.6390 -167.8261  311.6137 C.2       1 MOL    -0.0277
     17 C19       -40.2314 -168.3480  310.2643 C.3       1 MOL     0.0342
     18 C20       -41.3909 -166.2342  313.2500 C.3       1 MOL     0.0389
     19 C21       -40.5387 -162.1573  305.2866 C.3       1 MOL    -0.0102
     20 C22       -41.6777 -162.3102  304.2764 C.3       1 MOL     0.0110
     21 C23       -43.0119 -162.0116  304.9631 C.3       1 MOL     0.0009
     22 C24       -43.9613 -161.3456  303.9651 C.3       1 MOL     0.0002
     23 C25       -45.3559 -161.9604  304.0996 C.3       1 MOL     0.0009
     24 C26       -45.3957 -163.3005  303.3624 C.3       1 MOL     0.0115
     25 C27       -46.8505 -163.6962  303.1017 C.3       1 MOL     0.0805
     26 Br28      -47.2098 -165.4478  303.9190 Br        1 MOL    -0.0928
     27 C29       -40.6051 -160.7677  305.9234 C.3       1 MOL     0.0159
     28 C30       -39.1968 -162.3271  304.5716 C.3       1 MOL     0.0159
     29 H2        -43.1228 -163.1323  309.2635 H         1 MOL     0.2183
@<TRIPOS>BOND
     1    1   13 ar
     2    1    2 1 
     3    1    3 ar
     4    3    4 ar
     5    4    5 ar
     6    4   19 1 
     7    5    6 ar
     8    6   13 ar
     9    6    7 1 
    10    7    8 1 
    11    8    9 1 
    12    8   10 1 
    13    8   11 1 
    14   11   17 1 
    15   11   12 1 
    16   12   13 1 
    17   12   14 1 
    18   14   15 1 
    19   15   16 2 
    20   15   18 1 
    21   16   17 1 
    22   19   20 1 
    23   19   27 1 
    24   19   28 1 
    25   20   21 1 
    26   21   22 1 
    27   22   23 1 
    28   23   24 1 
    29   24   25 1 
    30   25   26 1 
    31   29    2 1 
@<TRIPOS>SUBSTRUCTURE
1 MOL         1
@<TRIPOS>MOLECULE
query molecule
   29    31     1     0     0
SMALL
NO_CHARGE

@<TRIPOS>ATOM
      1 C1        -39.3943 -165.0815  306.6558 C.ar      1 MOL     0.0777
      2 O2        -38.6139 -166.1453  306.3303 O.3       1 MOL    -0.3605
      3 C3        -39.5186 -164.0198  305.7726 C.ar      1 MOL     0.0376
      4 C4        -40.3110 -162.9378  306.1041 C.ar      1 MOL    -0.0372
      5 C5        -40.9804 -162.9154  307.3109 C.ar      1 MOL     0.0379
      6 C6        -40.8631 -163.9789  308.2008 C.ar      1 MOL     0.0821
      7 O7        -41.5516 -163.9219  309.3704 O.3       1 MOL    -0.3395
      8 C8        -41.2032 -164.8283  310.4179 C.3       1 MOL     0.0730
      9 C9        -42.2893 -164.8311  311.4956 C.3       1 MOL     0.0428
     10 C10       -39.8687 -164.3993  311.0310 C.3       1 MOL     0.0428
     11 C11       -41.0684 -166.2291  309.8179 C.3       1 MOL     0.0329
     12 C13       -39.9069 -166.2229  308.8139 C.3       1 MOL     0.0348
     13 C15       -40.0644 -165.0614  307.8722 C.ar      1 MOL     0.0162
     14 C16       -39.9349 -167.5483  308.0519 C.3       1 MOL     0.0390
     15 C17       -40.0074 -168.6866  309.0312 C.2       1 MOL    -0.0767
     16 C18       -40.3590 -168.5574  310.2710 C.2       1 MOL    -0.0277
     17 C19       -40.7423 -167.2511  310.9081 C.3       1 MOL     0.0342
     18 C20       -39.6480 -170.0649  308.5393 C.3       1 MOL     0.0389
     19 C21       -40.4442 -161.7809  305.1476 C.3       1 MOL    -0.0102
     20 C22       -41.4325 -162.1474  304.0384 C.3       1 MOL     0.0110
     21 C23       -42.7303 -162.6645  304.6621 C.3       1 MOL     0.0009
     22 C24       -43.9247 -162.1416  303.8614 C.3       1 MOL     0.0002
     23 C25       -45.1510 -163.0101  304.1490 C.3       1 MOL     0.0009
     24 C26       -46.0693 -163.0171  302.9253 C.3       1 MOL     0.0115
     25 C27       -46.2602 -164.4551  302.4390 C.3       1 MOL     0.0805
     26 Br28      -47.5120 -165.3899  303.6325 Br        1 MOL    -0.0928
     27 C29       -40.9566 -160.5521  305.9015 C.3       1 MOL     0.0159
     28 C30       -39.0791 -161.4686  304.5315 C.3       1 MOL     0.0159
     29 H2        -37.7108 -165.8501  306.1928 H         1 MOL     0.2183
@<TRIPOS>BOND
     1    1   13 ar
     2    1    2 1 
     3    1    3 ar
     4    3    4 ar
     5    4    5 ar
     6    4   19 1 
     7    5    6 ar
     8    6   13 ar
     9    6    7 1 
    10    7    8 1 
    11    8    9 1 
    12    8   10 1 
    13    8   11 1 
    14   11   17 1 
    15   11   12 1 
    16   12   13 1 
    17   12   14 1 
    18   14   15 1 
    19   15   16 2 
    20   15   18 1 
    21   16   17 1 
    22   19   20 1 
    23   19   27 1 
    24   19   28 1 
    25   20   21 1 
    26   21   22 1 
    27   22   23 1 
    28   23   24 1 
    29   24   25 1 
    30   25   26 1 
    31   29    2 1 
@<TRIPOS>SUBSTRUCTURE
1 MOL         1
@<TRIPOS>MOLECULE
query molecule
   29    31     1     0     0
SMALL
NO_CHARGE

@<TRIPOS>ATOM
      1 C1        -41.4837 -164.0246  308.4922 C.ar      1 MOL     0.0777
      2 O2        -42.2570 -163.7808  309.5828 O.3       1 MOL    -0.3605
      3 C3        -41.3309 -163.0468  307.5210 C.ar      1 MOL     0.0376
      4 C4        -40.5458 -163.2951  306.4117 C.ar      1 MOL    -0.0372
      5 C5        -39.9120 -164.5133  306.2724 C.ar      1 MOL     0.0379
      6 C6        -40.0580 -165.4981  307.2447 C.ar      1 MOL     0.0821
      7 O7        -39.4040 -166.6765  307.0745 O.3       1 MOL    -0.3395
      8 C8        -39.7852 -167.7961  307.8752 C.3       1 MOL     0.0730
      9 C9        -38.7312 -168.9005  307.7734 C.3       1 MOL     0.0428
     10 C10       -41.1361 -168.3252  307.3893 C.3       1 MOL     0.0428
     11 C11       -39.9060 -167.3309  309.3276 C.3       1 MOL     0.0329
     12 C13       -41.0376 -166.2972  309.4190 C.3       1 MOL     0.0348
     13 C15       -40.8495 -165.2525  308.3541 C.ar      1 MOL     0.0162
     14 C16       -40.9906 -165.6683  310.8121 C.3       1 MOL     0.0390
     15 C17       -40.9497 -166.7549  311.8501 C.2       1 MOL    -0.0767
     16 C18       -40.6344 -167.9862  311.6013 C.2       1 MOL    -0.0277
     17 C19       -40.2665 -168.5048  310.2393 C.3       1 MOL     0.0342
     18 C20       -41.2981 -166.3884  313.2697 C.3       1 MOL     0.0389
     19 C21       -40.3815 -162.2354  305.3528 C.3       1 MOL    -0.0102
     20 C22       -41.3792 -162.4871  304.2204 C.3       1 MOL     0.0110
     21 C23       -42.7910 -162.5972  304.7996 C.3       1 MOL     0.0009
     22 C24       -43.8175 -162.3664  303.6887 C.3       1 MOL     0.0002
     23 C25       -45.2287 -162.4371  304.2755 C.3       1 MOL     0.0009
     24 C26       -46.0973 -163.3487  303.4064 C.3       1 MOL     0.0115
     25 C27       -46.1596 -164.7430  304.0330 C.3       1 MOL     0.0805
     26 Br28      -47.9580 -165.4958  303.7795 Br        1 MOL    -0.0928
     27 C29       -40.6421 -160.8578  305.9653 C.3       1 MOL     0.0159
     28 C30       -38.9567 -162.2855  304.7977 C.3       1 MOL     0.0159
     29 H2        -43.1577 -164.0619  309.4062 H         1 MOL     0.2183
@<TRIPOS>BOND
     1    1   13 ar
     2    1    2 1 
     3    1    3 ar
     4    3    4 ar
     5    4    5 ar
     6    4   19 1 
     7    5    6 ar
     8    6   13 ar
     9    6    7 1 
    10    7    8 1 
    11    8    9 1 
    12    8   10 1 
    13    8   11 1 
    14   11   17 1 
    15   11   12 1 
    16   12   13 1 
    17   12   14 1 
    18   14   15 1 
    19   15   16 2 
    20   15   18 1 
    21   16   17 1 
    22   19   20 1 
    23   19   27 1 
    24   19   28 1 
    25   20   21 1 
    26   21   22 1 
    27   22   23 1 
    28   23   24 1 
    29   24   25 1 
    30   25   26 1 
    31   29    2 1 
@<TRIPOS>SUBSTRUCTURE
1 MOL         1
@<TRIPOS>MOLECULE
query molecule
   29    31     1     0     0
SMALL
NO_CHARGE

@<TRIPOS>ATOM
      1 C1        -41.5839 -164.0556  308.5204 C.ar      1 MOL     0.0777
      2 O2        -42.3254 -163.7360  309.6135 O.3       1 MOL    -0.3605
      3 C3        -41.4201 -163.1292  307.5018 C.ar      1 MOL     0.0376
      4 C4        -40.6673 -163.4544  306.3900 C.ar      1 MOL    -0.0372
      5 C5        -40.0766 -164.6983  306.2952 C.ar      1 MOL     0.0379
      6 C6        -40.2339 -165.6319  307.3151 C.ar      1 MOL     0.0821
      7 O7        -39.6224 -166.8381  307.1871 O.3       1 MOL    -0.3395
      8 C8        -40.0227 -167.9063  308.0467 C.3       1 MOL     0.0730
      9 C9        -39.0076 -169.0489  307.9757 C.3       1 MOL     0.0428
     10 C10       -41.4001 -168.4116  307.6128 C.3       1 MOL     0.0428
     11 C11       -40.0972 -167.3709  309.4779 C.3       1 MOL     0.0329
     12 C13       -41.1924 -166.2968  309.5433 C.3       1 MOL     0.0348
     13 C15       -40.9932 -165.3091  308.4273 C.ar      1 MOL     0.0162
     14 C16       -41.0952 -165.6064  310.9043 C.3       1 MOL     0.0390
     15 C17       -41.0676 -166.6448  311.9909 C.2       1 MOL    -0.0767
     16 C18       -40.7980 -167.8962  311.7937 C.2       1 MOL    -0.0277
     17 C19       -40.4763 -168.4890  310.4503 C.3       1 MOL     0.0342
     18 C20       -41.3736 -166.2019  313.3985 C.3       1 MOL     0.0389
     19 C21       -40.4913 -162.4506  305.2798 C.3       1 MOL    -0.0102
     20 C22       -41.6093 -162.6276  304.2502 C.3       1 MOL     0.0110
     21 C23       -42.9419 -162.1954  304.8651 C.3       1 MOL     0.0009
     22 C24       -43.8122 -161.5428  303.7891 C.3       1 MOL     0.0002
     23 C25       -45.2608 -162.0066  303.9543 C.3       1 MOL     0.0009
     24 C26       -45.4105 -163.4215  303.3917 C.3       1 MOL     0.0115
     25 C27       -46.3634 -164.2250  304.2791 C.3       1 MOL     0.0805
     26 Br28      -47.6635 -165.1760  303.1519 Br        1 MOL    -0.0928
     27 C29       -40.5498 -161.0353  305.8579 C.3       1 MOL     0.0159
     28 C30       -39.1363 -162.6699  304.6040 C.3       1 MOL     0.0159
     29 H2        -42.9311 -163.0246  309.3931 H         1 MOL     0.2183
@<TRIPOS>BOND
     1    1   13 ar
     2    1    2 1 
     3    1    3 ar
     4    3    4 ar
     5    4    5 ar
     6    4   19 1 
     7    5    6 ar
     8    6   13 ar
     9    6    7 1 
    10    7    8 1 
    11    8    9 1 
    12    8   10 1 
    13    8   11 1 
    14   11   17 1 
    15   11   12 1 
    16   12   13 1 
    17   12   14 1 
    18   14   15 1 
    19   15   16 2 
    20   15   18 1 
    21   16   17 1 
    22   19   20 1 
    23   19   27 1 
    24   19   28 1 
    25   20   21 1 
    26   21   22 1 
    27   22   23 1 
    28   23   24 1 
    29   24   25 1 
    30   25   26 1 
    31   29    2 1 
@<TRIPOS>SUBSTRUCTURE
1 MOL         1
@<TRIPOS>MOLECULE
query molecule
   29    31     1     0     0
SMALL
NO_CHARGE

@<TRIPOS>ATOM
      1 C1        -41.5193 -163.7328  308.2453 C.ar      1 MOL     0.0777
      2 O2        -42.4077 -163.5986  309.2649 O.3       1 MOL    -0.3605
      3 C3        -41.3643 -162.7077  307.3246 C.ar      1 MOL     0.0376
      4 C4        -40.4621 -162.8447  306.2874 C.ar      1 MOL    -0.0372
      5 C5        -39.7141 -163.9987  306.1700 C.ar      1 MOL     0.0379
      6 C6        -39.8619 -165.0303  307.0923 C.ar      1 MOL     0.0821
      7 O7        -39.0945 -166.1417  306.9474 O.3       1 MOL    -0.3395
      8 C8        -39.4481 -167.3204  307.6724 C.3       1 MOL     0.0730
      9 C9        -38.2966 -168.3273  307.6358 C.3       1 MOL     0.0428
     10 C10       -40.6972 -167.9416  307.0440 C.3       1 MOL     0.0428
     11 C11       -39.7416 -166.9253  309.1209 C.3       1 MOL     0.0329
     12 C13       -40.9629 -165.9950  309.1375 C.3       1 MOL     0.0348
     13 C15       -40.7702 -164.8966  308.1290 C.ar      1 MOL     0.0162
     14 C16       -41.0990 -165.4203  310.5480 C.3       1 MOL     0.0390
     15 C17       -41.0586 -166.5401  311.5501 C.2       1 MOL    -0.0767
     16 C18       -40.6153 -167.7296  311.2933 C.2       1 MOL    -0.0277
     17 C19       -40.0802 -168.1608  309.9565 C.3       1 MOL     0.0342
     18 C20       -41.5664 -166.2611  312.9413 C.3       1 MOL     0.0389
     19 C21       -40.2948 -161.7336  305.2831 C.3       1 MOL    -0.0102
     20 C22       -41.2336 -161.9713  304.0984 C.3       1 MOL     0.0110
     21 C23       -42.6406 -162.2766  304.6160 C.3       1 MOL     0.0009
     22 C24       -43.6483 -162.1220  303.4751 C.3       1 MOL     0.0002
     23 C25       -45.0643 -162.3398  304.0123 C.3       1 MOL     0.0009
     24 C26       -45.5981 -163.6839  303.5130 C.3       1 MOL     0.0115
     25 C27       -46.7535 -164.1378  304.4073 C.3       1 MOL     0.0805
     26 Br28      -48.1235 -165.0226  303.3094 Br        1 MOL    -0.0928
     27 C29       -40.6342 -160.3952  305.9420 C.3       1 MOL     0.0159
     28 C30       -38.8471 -161.7062  304.7890 C.3       1 MOL     0.0159
     29 H2        -43.2599 -163.9490  308.9957 H         1 MOL     0.2183
@<TRIPOS>BOND
     1    1   13 ar
     2    1    2 1 
     3    1    3 ar
     4    3    4 ar
     5    4    5 ar
     6    4   19 1 
     7    5    6 ar
     8    6   13 ar
     9    6    7 1 
    10    7    8 1 
    11    8    9 1 
    12    8   10 1 
    13    8   11 1 
    14   11   17 1 
    15   11   12 1 
    16   12   13 1 
    17   12   14 1 
    18   14   15 1 
    19   15   16 2 
    20   15   18 1 
    21   16   17 1 
    22   19   20 1 
    23   19   27 1 
    24   19   28 1 
    25   20   21 1 
    26   21   22 1 
    27   22   23 1 
    28   23   24 1 
    29   24   25 1 
    30   25   26 1 
    31   29    2 1 
@<TRIPOS>SUBSTRUCTURE
1 MOL         1
@<TRIPOS>MOLECULE
query molecule
   29    31     1     0     0
SMALL
NO_CHARGE

@<TRIPOS>ATOM
      1 C1        -39.7430 -164.4445  306.4327 C.ar      1 MOL     0.0777
      2 O2        -38.7275 -165.3243  306.2289 O.3       1 MOL    -0.3605
      3 C3        -40.1018 -163.5587  305.4282 C.ar      1 MOL     0.0376
      4 C4        -41.1333 -162.6635  305.6358 C.ar      1 MOL    -0.0372
      5 C5        -41.8076 -162.6534  306.8401 C.ar      1 MOL     0.0379
      6 C6        -41.4552 -163.5418  307.8517 C.ar      1 MOL     0.0821
      7 O7        -42.1556 -163.5074  309.0151 O.3       1 MOL    -0.3395
      8 C8        -41.6185 -164.1703  310.1606 C.3       1 MOL     0.0730
      9 C9        -42.6895 -164.2992  311.2456 C.3       1 MOL     0.0428
     10 C10       -40.4335 -163.3652  310.6978 C.3       1 MOL     0.0428
     11 C11       -41.1459 -165.5615  309.7347 C.3       1 MOL     0.0329
     12 C13       -40.0035 -165.4025  308.7212 C.3       1 MOL     0.0348
     13 C15       -40.4175 -164.4356  307.6468 C.ar      1 MOL     0.0162
     14 C16       -39.7045 -166.7797  308.1276 C.3       1 MOL     0.0390
     15 C17       -39.5201 -167.7742  309.2396 C.2       1 MOL    -0.0767
     16 C18       -39.9114 -167.5817  310.4591 C.2       1 MOL    -0.0277
     17 C19       -40.6036 -166.3359  310.9370 C.3       1 MOL     0.0342
     18 C20       -38.8364 -169.0773  308.9150 C.3       1 MOL     0.0389
     19 C21       -41.5224 -161.6970  304.5469 C.3       1 MOL    -0.0102
     20 C22       -42.5418 -162.3591  303.6176 C.3       1 MOL     0.0110
     21 C23       -43.8342 -162.6314  304.3897 C.3       1 MOL     0.0009
     22 C24       -45.0362 -162.2536  303.5215 C.3       1 MOL     0.0002
     23 C25       -46.2749 -163.0071  304.0099 C.3       1 MOL     0.0009
     24 C26       -46.7879 -163.9216  302.8956 C.3       1 MOL     0.0115
     25 C27       -46.7671 -165.3736  303.3774 C.3       1 MOL     0.0805
     26 Br28      -48.5112 -166.2077  303.0201 Br        1 MOL    -0.0928
     27 C29       -42.1406 -160.4453  305.1729 C.3       1 MOL     0.0159
     28 C30       -40.2799 -161.3055  303.7446 C.3       1 MOL     0.0159
     29 H2        -38.0522 -164.9136  305.6841 H         1 MOL     0.2183
@<TRIPOS>BOND
     1    1   13 ar
     2    1    2 1 
     3    1    3 ar
     4    3    4 ar
     5    4    5 ar
     6    4   19 1 
     7    5    6 ar
     8    6   13 ar
     9    6    7 1 
    10    7    8 1 
    11    8    9 1 
    12    8   10 1 
    13    8   11 1 
    14   11   17 1 
    15   11   12 1 
    16   12   13 1 
    17   12   14 1 
    18   14   15 1 
    19   15   16 2 
    20   15   18 1 
    21   16   17 1 
    22   19   20 1 
    23   19   27 1 
    24   19   28 1 
    25   20   21 1 
    26   21   22 1 
    27   22   23 1 
    28   23   24 1 
    29   24   25 1 
    30   25   26 1 
    31   29    2 1 
@<TRIPOS>SUBSTRUCTURE
1 MOL         1
@<TRIPOS>MOLECULE
query molecule
   29    31     1     0     0
SMALL
NO_CHARGE

@<TRIPOS>ATOM
      1 C1        -41.5121 -163.8783  308.2099 C.ar      1 MOL     0.0777
      2 O2        -42.3622 -163.6656  309.2485 O.3       1 MOL    -0.3605
      3 C3        -41.3443 -162.8991  307.2427 C.ar      1 MOL     0.0376
      4 C4        -40.4809 -163.1159  306.1862 C.ar      1 MOL    -0.0372
      5 C5        -39.7842 -164.3039  306.0957 C.ar      1 MOL     0.0379
      6 C6        -39.9450 -165.2899  307.0646 C.ar      1 MOL     0.0821
      7 O7        -39.2279 -166.4373  306.9442 O.3       1 MOL    -0.3395
      8 C8        -39.6063 -167.5696  307.7283 C.3       1 MOL     0.0730
      9 C9        -38.4981 -168.6243  307.7005 C.3       1 MOL     0.0428
     10 C10       -40.8983 -168.1633  307.1635 C.3       1 MOL     0.0428
     11 C11       -39.8386 -167.1037  309.1668 C.3       1 MOL     0.0329
     12 C13       -41.0202 -166.1234  309.1799 C.3       1 MOL     0.0348
     13 C15       -40.8146 -165.0761  308.1208 C.ar      1 MOL     0.0162
     14 C16       -41.0892 -165.4863  310.5684 C.3       1 MOL     0.0390
     15 C17       -41.0630 -166.5649  311.6152 C.2       1 MOL    -0.0767
     16 C18       -40.6763 -167.7814  311.3959 C.2       1 MOL    -0.0277
     17 C19       -40.2008 -168.2888  310.0633 C.3       1 MOL     0.0342
     18 C20       -41.5158 -166.2083  313.0076 C.3       1 MOL     0.0389
     19 C21       -40.3001 -162.0547  305.1315 C.3       1 MOL    -0.0102
     20 C22       -41.4463 -162.1390  304.1214 C.3       1 MOL     0.0110
     21 C23       -42.7644 -161.7905  304.8155 C.3       1 MOL     0.0009
     22 C24       -43.6821 -161.0623  303.8313 C.3       1 MOL     0.0002
     23 C25       -45.1055 -161.6080  303.9619 C.3       1 MOL     0.0009
     24 C26       -45.2027 -162.9558  303.2445 C.3       1 MOL     0.0115
     25 C27       -46.6744 -163.3378  303.0738 C.3       1 MOL     0.0805
     26 Br28      -47.0042 -165.0758  303.9315 Br        1 MOL    -0.0928
     27 C29       -40.3023 -160.6743  305.7912 C.3       1 MOL     0.0159
     28 C30       -38.9683 -162.2734  304.4109 C.3       1 MOL     0.0159
     29 H2        -43.0903 -163.1114  308.9583 H         1 MOL     0.2183
@<TRIPOS>BOND
     1    1   13 ar
     2    1    2 1 
     3    1    3 ar
     4    3    4 ar
     5    4    5 ar
     6    4   19 1 
     7    5    6 ar
     8    6   13 ar
     9    6    7 1 
    10    7    8 1 
    11    8    9 1 
    12    8   10 1 
    13    8   11 1 
    14   11   17 1 
    15   11   12 1 
    16   12   13 1 
    17   12   14 1 
    18   14   15 1 
    19   15   16 2 
    20   15   18 1 
    21   16   17 1 
    22   19   20 1 
    23   19   27 1 
    24   19   28 1 
    25   20   21 1 
    26   21   22 1 
    27   22   23 1 
    28   23   24 1 
    29   24   25 1 
    30   25   26 1 
    31   29    2 1 
@<TRIPOS>SUBSTRUCTURE
1 MOL         1
@<TRIPOS>MOLECULE
query molecule
   29    31     1     0     0
SMALL
NO_CHARGE

@<TRIPOS>ATOM
      1 C1        -39.9186 -164.3410  306.2751 C.ar      1 MOL     0.0777
      2 O2        -38.8858 -165.1795  305.9973 O.3       1 MOL    -0.3605
      3 C3        -40.3478 -163.4331  305.3190 C.ar      1 MOL     0.0376
      4 C4        -41.3969 -162.5799  305.6018 C.ar      1 MOL    -0.0372
      5 C5        -42.0188 -162.6338  306.8329 C.ar      1 MOL     0.0379
      6 C6        -41.5957 -163.5448  307.7960 C.ar      1 MOL     0.0821
      7 O7        -42.2462 -163.5738  308.9882 O.3       1 MOL    -0.3395
      8 C8        -41.6399 -164.2581  310.0855 C.3       1 MOL     0.0730
      9 C9        -42.6588 -164.4597  311.2091 C.3       1 MOL     0.0428
     10 C10       -40.4587 -163.4339  310.6015 C.3       1 MOL     0.0428
     11 C11       -41.1429 -165.6175  309.5903 C.3       1 MOL     0.0329
     12 C13       -40.0506 -165.3861  308.5364 C.3       1 MOL     0.0348
     13 C15       -40.5403 -164.3964  307.5158 C.ar      1 MOL     0.0162
     14 C16       -39.7345 -166.7312  307.8814 C.3       1 MOL     0.0390
     15 C17       -39.4715 -167.7572  308.9481 C.2       1 MOL    -0.0767
     16 C18       -39.8159 -167.6201  310.1891 C.2       1 MOL    -0.0277
     17 C19       -40.5255 -166.4150  310.7401 C.3       1 MOL     0.0342
     18 C20       -38.7619 -169.0252  308.5483 C.3       1 MOL     0.0389
     19 C21       -41.8624 -161.5895  304.5658 C.3       1 MOL    -0.0102
     20 C22       -41.7011 -160.1685  305.1099 C.3       1 MOL     0.0110
     21 C23       -40.3295 -160.0292  305.7734 C.3       1 MOL     0.0009
     22 C24       -39.8934 -158.5630  305.7400 C.3       1 MOL     0.0002
     23 C25       -40.1461 -157.9244  307.1071 C.3       1 MOL     0.0009
     24 C26       -41.0699 -156.7160  306.9427 C.3       1 MOL     0.0115
     25 C27       -40.3036 -155.4375  307.2876 C.3       1 MOL     0.0805
     26 Br28      -41.4605 -153.8774  306.9828 Br        1 MOL    -0.0928
     27 C29       -41.0237 -161.7476  303.2960 C.3       1 MOL     0.0159
     28 C30       -43.3349 -161.8465  304.2397 C.3       1 MOL     0.0159
     29 H2        -38.1857 -164.6910  305.5581 H         1 MOL     0.2183
@<TRIPOS>BOND
     1    1   13 ar
     2    1    2 1 
     3    1    3 ar
     4    3    4 ar
     5    4    5 ar
     6    4   19 1 
     7    5    6 ar
     8    6   13 ar
     9    6    7 1 
    10    7    8 1 
    11    8    9 1 
    12    8   10 1 
    13    8   11 1 
    14   11   17 1 
    15   11   12 1 
    16   12   13 1 
    17   12   14 1 
    18   14   15 1 
    19   15   16 2 
    20   15   18 1 
    21   16   17 1 
    22   19   20 1 
    23   19   27 1 
    24   19   28 1 
    25   20   21 1 
    26   21   22 1 
    27   22   23 1 
    28   23   24 1 
    29   24   25 1 
    30   25   26 1 
    31   29    2 1 
@<TRIPOS>SUBSTRUCTURE
1 MOL         1
@<TRIPOS>MOLECULE
query molecule
   29    31     1     0     0
SMALL
NO_CHARGE

@<TRIPOS>ATOM
      1 C1        -39.3035 -164.7188  306.5516 C.ar      1 MOL     0.0777
      2 O2        -38.3689 -165.6706  306.2922 O.3       1 MOL    -0.3605
      3 C3        -39.4185 -163.6177  305.7168 C.ar      1 MOL     0.0376
      4 C4        -40.3679 -162.6495  305.9812 C.ar      1 MOL    -0.0372
      5 C5        -41.2026 -162.7800  307.0727 C.ar      1 MOL     0.0379
      6 C6        -41.0952 -163.8841  307.9130 C.ar      1 MOL     0.0821
      7 O7        -41.9472 -163.9797  308.9667 O.3       1 MOL    -0.3395
      8 C8        -41.6532 -164.9147  310.0057 C.3       1 MOL     0.0730
      9 C9        -42.8760 -165.1048  310.9054 C.3       1 MOL     0.0428
     10 C10       -40.4783 -164.3920  310.8348 C.3       1 MOL     0.0428
     11 C11       -41.2754 -166.2492  309.3602 C.3       1 MOL     0.0329
     12 C13       -39.9894 -166.0530  308.5447 C.3       1 MOL     0.0348
     13 C15       -40.1400 -164.8523  307.6523 C.ar      1 MOL     0.0162
     14 C16       -39.7569 -167.3186  307.7186 C.3       1 MOL     0.0390
     15 C17       -39.8405 -168.5228  308.6146 C.2       1 MOL    -0.0767
     16 C18       -40.3796 -168.5165  309.7922 C.2       1 MOL    -0.0277
     17 C19       -40.9963 -167.3042  310.4319 C.3       1 MOL     0.0342
     18 C20       -39.2601 -169.8191  308.1109 C.3       1 MOL     0.0389
     19 C21       -40.4920 -161.4498  305.0777 C.3       1 MOL    -0.0102
     20 C22       -41.0288 -160.2616  305.8783 C.3       1 MOL     0.0110
     21 C23       -39.9652 -159.1634  305.9363 C.3       1 MOL     0.0009
     22 C24       -40.3356 -158.1515  307.0225 C.3       1 MOL     0.0002
     23 C25       -39.8568 -156.7590  306.6070 C.3       1 MOL     0.0009
     24 C26       -40.9965 -155.7538  306.7843 C.3       1 MOL     0.0115
     25 C27       -41.0169 -154.7910  305.5954 C.3       1 MOL     0.0805
     26 Br28      -42.6183 -153.6553  305.6992 Br        1 MOL    -0.0928
     27 C29       -39.1176 -161.0990  304.5041 C.3       1 MOL     0.0159
     28 C30       -41.4554 -161.7706  303.9333 C.3       1 MOL     0.0159
     29 H2        -37.6464 -165.2826  305.7931 H         1 MOL     0.2183
@<TRIPOS>BOND
     1    1   13 ar
     2    1    2 1 
     3    1    3 ar
     4    3    4 ar
     5    4    5 ar
     6    4   19 1 
     7    5    6 ar
     8    6   13 ar
     9    6    7 1 
    10    7    8 1 
    11    8    9 1 
    12    8   10 1 
    13    8   11 1 
    14   11   17 1 
    15   11   12 1 
    16   12   13 1 
    17   12   14 1 
    18   14   15 1 
    19   15   16 2 
    20   15   18 1 
    21   16   17 1 
    22   19   20 1 
    23   19   27 1 
    24   19   28 1 
    25   20   21 1 
    26   21   22 1 
    27   22   23 1 
    28   23   24 1 
    29   24   25 1 
    30   25   26 1 
    31   29    2 1 
@<TRIPOS>SUBSTRUCTURE
1 MOL         1
@<TRIPOS>MOLECULE
query molecule
   29    31     1     0     0
SMALL
NO_CHARGE

@<TRIPOS>ATOM
      1 C1        -40.0590 -164.2168  306.2461 C.ar      1 MOL     0.0777
      2 O2        -38.9993 -165.0121  305.9438 O.3       1 MOL    -0.3605
      3 C3        -40.5163 -163.2931  305.3187 C.ar      1 MOL     0.0376
      4 C4        -41.5929 -162.4838  305.6264 C.ar      1 MOL    -0.0372
      5 C5        -42.2139 -162.5971  306.8538 C.ar      1 MOL     0.0379
      6 C6        -41.7625 -163.5243  307.7883 C.ar      1 MOL     0.0821
      7 O7        -42.4130 -163.6124  308.9776 O.3       1 MOL    -0.3395
      8 C8        -41.7860 -164.3115  310.0537 C.3       1 MOL     0.0730
      9 C9        -42.7990 -164.5817  311.1681 C.3       1 MOL     0.0428
     10 C10       -40.6326 -163.4664  310.5982 C.3       1 MOL     0.0428
     11 C11       -41.2447 -165.6376  309.5163 C.3       1 MOL     0.0329
     12 C13       -40.1594 -165.3373  308.4726 C.3       1 MOL     0.0348
     13 C15       -40.6799 -164.3319  307.4832 C.ar      1 MOL     0.0162
     14 C16       -39.7992 -166.6499  307.7756 C.3       1 MOL     0.0390
     15 C17       -39.5043 -167.7005  308.8096 C.2       1 MOL    -0.0767
     16 C18       -39.8542 -167.6144  310.0536 C.2       1 MOL    -0.0277
     17 C19       -40.6030 -166.4511  310.6414 C.3       1 MOL     0.0342
     18 C20       -38.7536 -168.9314  308.3710 C.3       1 MOL     0.0389
     19 C21       -42.0891 -161.4762  304.6216 C.3       1 MOL    -0.0102
     20 C22       -41.7866 -160.0631  305.1242 C.3       1 MOL     0.0110
     21 C23       -40.4890 -160.0770  305.9347 C.3       1 MOL     0.0009
     22 C24       -39.8612 -158.6818  305.9161 C.3       1 MOL     0.0002
     23 C25       -40.6405 -157.7593  306.8556 C.3       1 MOL     0.0009
     24 C26       -40.3701 -156.3013  306.4787 C.3       1 MOL     0.0115
     25 C27       -41.6718 -155.6447  306.0146 C.3       1 MOL     0.0805
     26 Br28      -41.2688 -153.9157  305.1701 Br        1 MOL    -0.0928
     27 C29       -41.3852 -161.7026  303.2821 C.3       1 MOL     0.0159
     28 C30       -43.5992 -161.6399  304.4382 C.3       1 MOL     0.0159
     29 H2        -38.1877 -164.5038  306.0109 H         1 MOL     0.2183
@<TRIPOS>BOND
     1    1   13 ar
     2    1    2 1 
     3    1    3 ar
     4    3    4 ar
     5    4    5 ar
     6    4   19 1 
     7    5    6 ar
     8    6   13 ar
     9    6    7 1 
    10    7    8 1 
    11    8    9 1 
    12    8   10 1 
    13    8   11 1 
    14   11   17 1 
    15   11   12 1 
    16   12   13 1 
    17   12   14 1 
    18   14   15 1 
    19   15   16 2 
    20   15   18 1 
    21   16   17 1 
    22   19   20 1 
    23   19   27 1 
    24   19   28 1 
    25   20   21 1 
    26   21   22 1 
    27   22   23 1 
    28   23   24 1 
    29   24   25 1 
    30   25   26 1 
    31   29    2 1 
@<TRIPOS>SUBSTRUCTURE
1 MOL         1
@<TRIPOS>MOLECULE
query molecule
   29    31     1     0     0
SMALL
NO_CHARGE

@<TRIPOS>ATOM
      1 C1        -39.3820 -164.6288  306.5099 C.ar      1 MOL     0.0777
      2 O2        -38.4676 -165.6100  306.2905 O.3       1 MOL    -0.3605
      3 C3        -39.5081 -163.5868  305.6038 C.ar      1 MOL     0.0376
      4 C4        -40.4368 -162.5887  305.8275 C.ar      1 MOL    -0.0372
      5 C5        -41.2398 -162.6308  306.9492 C.ar      1 MOL     0.0379
      6 C6        -41.1212 -163.6753  307.8612 C.ar      1 MOL     0.0821
      7 O7        -41.9423 -163.6849  308.9433 O.3       1 MOL    -0.3395
      8 C8        -41.6290 -164.5496  310.0361 C.3       1 MOL     0.0730
      9 C9        -42.8266 -164.6588  310.9821 C.3       1 MOL     0.0428
     10 C10       -40.4233 -163.9879  310.7921 C.3       1 MOL     0.0428
     11 C11       -41.2878 -165.9312  309.4748 C.3       1 MOL     0.0329
     12 C13       -40.0245 -165.8110  308.6105 C.3       1 MOL     0.0348
     13 C15       -40.1866 -164.6732  307.6411 C.ar      1 MOL     0.0162
     14 C16       -39.8330 -167.1343  307.8685 C.3       1 MOL     0.0390
     15 C17       -39.9048 -168.2720  308.8484 C.2       1 MOL    -0.0767
     16 C18       -40.4081 -168.1759  310.0379 C.2       1 MOL    -0.0277
     17 C19       -40.9900 -166.9131  310.6090 C.3       1 MOL     0.0342
     18 C20       -39.3562 -169.6086  308.4199 C.3       1 MOL     0.0389
     19 C21       -40.5727 -161.4530  304.8462 C.3       1 MOL    -0.0102
     20 C22       -41.2005 -160.2462  305.5467 C.3       1 MOL     0.0110
     21 C23       -40.1052 -159.2433  305.9143 C.3       1 MOL     0.0009
     22 C24       -40.6344 -158.2763  306.9755 C.3       1 MOL     0.0002
     23 C25       -40.9804 -156.9383  306.3190 C.3       1 MOL     0.0009
     24 C26       -39.8675 -155.9277  306.6036 C.3       1 MOL     0.0115
     25 C27       -40.2446 -154.5715  306.0041 C.3       1 MOL     0.0805
     26 Br28      -41.3765 -153.5857  307.2738 Br        1 MOL    -0.0928
     27 C29       -39.1903 -161.0711  304.3134 C.3       1 MOL     0.0159
     28 C30       -41.4655 -161.8885  303.6825 C.3       1 MOL     0.0159
     29 H2        -38.0973 -165.5119  305.4103 H         1 MOL     0.2183
@<TRIPOS>BOND
     1    1   13 ar
     2    1    2 1 
     3    1    3 ar
     4    3    4 ar
     5    4    5 ar
     6    4   19 1 
     7    5    6 ar
     8    6   13 ar
     9    6    7 1 
    10    7    8 1 
    11    8    9 1 
    12    8   10 1 
    13    8   11 1 
    14   11   17 1 
    15   11   12 1 
    16   12   13 1 
    17   12   14 1 
    18   14   15 1 
    19   15   16 2 
    20   15   18 1 
    21   16   17 1 
    22   19   20 1 
    23   19   27 1 
    24   19   28 1 
    25   20   21 1 
    26   21   22 1 
    27   22   23 1 
    28   23   24 1 
    29   24   25 1 
    30   25   26 1 
    31   29    2 1 
@<TRIPOS>SUBSTRUCTURE
1 MOL         1
@<TRIPOS>MOLECULE
query molecule
   29    31     1     0     0
SMALL
NO_CHARGE

@<TRIPOS>ATOM
      1 C1        -39.4862 -164.8639  306.5992 C.ar      1 MOL     0.0777
      2 O2        -38.6675 -165.9333  306.4173 O.3       1 MOL    -0.3605
      3 C3        -39.5785 -163.8895  305.6172 C.ar      1 MOL     0.0376
      4 C4        -40.4099 -162.8018  305.8027 C.ar      1 MOL    -0.0372
      5 C5        -41.1498 -162.6874  306.9622 C.ar      1 MOL     0.0379
      6 C6        -41.0648 -163.6633  307.9507 C.ar      1 MOL     0.0821
      7 O7        -41.8222 -163.5181  309.0689 O.3       1 MOL    -0.3395
      8 C8        -41.5190 -164.3178  310.2130 C.3       1 MOL     0.0730
      9 C9        -42.6667 -164.2504  311.2226 C.3       1 MOL     0.0428
     10 C10       -40.2316 -163.8026  310.8596 C.3       1 MOL     0.0428
     11 C11       -41.3220 -165.7631  309.7521 C.3       1 MOL     0.0329
     12 C13       -40.1034 -165.8187  308.8197 C.3       1 MOL     0.0348
     13 C15       -40.2273 -164.7509  307.7685 C.ar      1 MOL     0.0162
     14 C16       -40.0607 -167.2077  308.1815 C.3       1 MOL     0.0390
     15 C17       -40.1690 -168.2547  309.2548 C.2       1 MOL    -0.0767
     16 C18       -40.5957 -168.0231  310.4556 C.2       1 MOL    -0.0277
     17 C19       -41.0412 -166.6745  310.9478 C.3       1 MOL     0.0342
     18 C20       -39.7546 -169.6624  308.9121 C.3       1 MOL     0.0389
     19 C21       -40.5086 -161.7393  304.7385 C.3       1 MOL    -0.0102
     20 C22       -41.3460 -160.5703  305.2612 C.3       1 MOL     0.0110
     21 C23       -40.5335 -159.7803  306.2890 C.3       1 MOL     0.0009
     22 C24       -40.3510 -158.3424  305.7987 C.3       1 MOL     0.0002
     23 C25       -40.5777 -157.3744  306.9616 C.3       1 MOL     0.0009
     24 C26       -40.2603 -155.9483  306.5074 C.3       1 MOL     0.0115
     25 C27       -41.3790 -155.0079  306.9601 C.3       1 MOL     0.0805
     26 Br28      -41.9217 -153.8633  305.4566 Br        1 MOL    -0.0928
     27 C29       -39.1061 -161.2427  304.3820 C.3       1 MOL     0.0159
     28 C30       -41.1741 -162.3261  303.4920 C.3       1 MOL     0.0159
     29 H2        -37.8838 -165.8332  306.9626 H         1 MOL     0.2183
@<TRIPOS>BOND
     1    1   13 ar
     2    1    2 1 
     3    1    3 ar
     4    3    4 ar
     5    4    5 ar
     6    4   19 1 
     7    5    6 ar
     8    6   13 ar
     9    6    7 1 
    10    7    8 1 
    11    8    9 1 
    12    8   10 1 
    13    8   11 1 
    14   11   17 1 
    15   11   12 1 
    16   12   13 1 
    17   12   14 1 
    18   14   15 1 
    19   15   16 2 
    20   15   18 1 
    21   16   17 1 
    22   19   20 1 
    23   19   27 1 
    24   19   28 1 
    25   20   21 1 
    26   21   22 1 
    27   22   23 1 
    28   23   24 1 
    29   24   25 1 
    30   25   26 1 
    31   29    2 1 
@<TRIPOS>SUBSTRUCTURE
1 MOL         1
@<TRIPOS>MOLECULE
query molecule
   29    31     1     0     0
SMALL
NO_CHARGE

@<TRIPOS>ATOM
      1 C1        -41.6930 -164.1712  308.4971 C.ar      1 MOL     0.0777
      2 O2        -42.5179 -164.0315  309.5681 O.3       1 MOL    -0.3605
      3 C3        -41.6218 -163.1665  307.5442 C.ar      1 MOL     0.0376
      4 C4        -40.7841 -163.3090  306.4549 C.ar      1 MOL    -0.0372
      5 C5        -40.0171 -164.4482  306.3175 C.ar      1 MOL     0.0379
      6 C6        -40.0809 -165.4592  307.2716 C.ar      1 MOL     0.0821
      7 O7        -39.2973 -166.5561  307.1044 O.3       1 MOL    -0.3395
      8 C8        -39.5753 -167.7239  307.8784 C.3       1 MOL     0.0730
      9 C9        -38.4042 -168.7048  307.7922 C.3       1 MOL     0.0428
     10 C10       -40.8462 -168.3891  307.3463 C.3       1 MOL     0.0428
     11 C11       -39.7860 -167.2990  309.3329 C.3       1 MOL     0.0329
     12 C13       -41.0261 -166.3967  309.4055 C.3       1 MOL     0.0348
     13 C15       -40.9246 -165.3201  308.3608 C.ar      1 MOL     0.0162
     14 C16       -41.0864 -165.7898  310.8077 C.3       1 MOL     0.0390
     15 C17       -40.9552 -166.8826  311.8316 C.2       1 MOL    -0.0767
     16 C18       -40.5001 -168.0678  311.5754 C.2       1 MOL    -0.0277
     17 C19       -40.0405 -168.5204  310.2176 C.3       1 MOL     0.0342
     18 C20       -41.3804 -166.5801  313.2454 C.3       1 MOL     0.0389
     19 C21       -40.7081 -162.2201  305.4158 C.3       1 MOL    -0.0102
     20 C22       -41.6853 -162.5300  304.2800 C.3       1 MOL     0.0110
     21 C23       -43.1067 -162.6159  304.8394 C.3       1 MOL     0.0009
     22 C24       -44.1047 -162.1764  303.7661 C.3       1 MOL     0.0002
     23 C25       -44.8247 -163.4046  303.2057 C.3       1 MOL     0.0009
     24 C26       -46.2495 -163.0203  302.8017 C.3       1 MOL     0.0115
     25 C27       -47.1818 -164.2128  303.0240 C.3       1 MOL     0.0805
     26 Br28      -48.9296 -163.5698  303.6541 Br        1 MOL    -0.0928
     27 C29       -41.0766 -160.8794  306.0541 C.3       1 MOL     0.0159
     28 C30       -39.2853 -162.1456  304.8583 C.3       1 MOL     0.0159
     29 H2        -43.3337 -163.6080  309.2911 H         1 MOL     0.2183
@<TRIPOS>BOND
     1    1   13 ar
     2    1    2 1 
     3    1    3 ar
     4    3    4 ar
     5    4    5 ar
     6    4   19 1 
     7    5    6 ar
     8    6   13 ar
     9    6    7 1 
    10    7    8 1 
    11    8    9 1 
    12    8   10 1 
    13    8   11 1 
    14   11   17 1 
    15   11   12 1 
    16   12   13 1 
    17   12   14 1 
    18   14   15 1 
    19   15   16 2 
    20   15   18 1 
    21   16   17 1 
    22   19   20 1 
    23   19   27 1 
    24   19   28 1 
    25   20   21 1 
    26   21   22 1 
    27   22   23 1 
    28   23   24 1 
    29   24   25 1 
    30   25   26 1 
    31   29    2 1 
@<TRIPOS>SUBSTRUCTURE
1 MOL         1
@<TRIPOS>MOLECULE
query molecule
   29    31     1     0     0
SMALL
NO_CHARGE

@<TRIPOS>ATOM
      1 C1        -41.5621 -164.1574  308.1850 C.ar      1 MOL     0.0777
      2 O2        -42.3825 -163.8392  309.2206 O.3       1 MOL    -0.3605
      3 C3        -41.3718 -163.2530  307.1514 C.ar      1 MOL     0.0376
      4 C4        -40.5387 -163.5769  306.0979 C.ar      1 MOL    -0.0372
      5 C5        -39.8945 -164.7974  306.0764 C.ar      1 MOL     0.0379
      6 C6        -40.0781 -165.7086  307.1120 C.ar      1 MOL     0.0821
      7 O7        -39.4125 -166.8916  307.0576 O.3       1 MOL    -0.3395
      8 C8        -39.8232 -167.9517  307.9223 C.3       1 MOL     0.0730
      9 C9        -38.7612 -169.0528  307.9476 C.3       1 MOL     0.0428
     10 C10       -41.1497 -168.5251  307.4199 C.3       1 MOL     0.0428
     11 C11       -40.0081 -167.3813  309.3297 C.3       1 MOL     0.0329
     12 C13       -41.1469 -166.3519  309.2960 C.3       1 MOL     0.0348
     13 C15       -40.9176 -165.3875  308.1655 C.ar      1 MOL     0.0162
     14 C16       -41.1623 -165.6214  310.6393 C.3       1 MOL     0.0390
     15 C17       -41.1617 -166.6280  311.7558 C.2       1 MOL    -0.0767
     16 C18       -40.8309 -167.8719  311.6127 C.2       1 MOL    -0.0277
     17 C19       -40.4027 -168.4872  310.3098 C.3       1 MOL     0.0342
     18 C20       -41.5723 -166.1601  313.1282 C.3       1 MOL     0.0389
     19 C21       -40.3335 -162.5972  304.9713 C.3       1 MOL    -0.0102
     20 C22       -41.6427 -162.4279  304.1979 C.3       1 MOL     0.0110
     21 C23       -42.3678 -161.1740  304.6907 C.3       1 MOL     0.0009
     22 C24       -43.5778 -160.8995  303.7953 C.3       1 MOL     0.0002
     23 C25       -44.8348 -161.4830  304.4437 C.3       1 MOL     0.0009
     24 C26       -45.5119 -162.4466  303.4672 C.3       1 MOL     0.0115
     25 C27       -46.1092 -163.6225  304.2426 C.3       1 MOL     0.0805
     26 Br28      -46.6259 -165.0423  302.9847 Br        1 MOL    -0.0928
     27 C29       -39.9007 -161.2457  305.5432 C.3       1 MOL     0.0159
     28 C30       -39.2489 -163.1232  304.0291 C.3       1 MOL     0.0159
     29 H2        -43.0811 -164.4941  309.2888 H         1 MOL     0.2183
@<TRIPOS>BOND
     1    1   13 ar
     2    1    2 1 
     3    1    3 ar
     4    3    4 ar
     5    4    5 ar
     6    4   19 1 
     7    5    6 ar
     8    6   13 ar
     9    6    7 1 
    10    7    8 1 
    11    8    9 1 
    12    8   10 1 
    13    8   11 1 
    14   11   17 1 
    15   11   12 1 
    16   12   13 1 
    17   12   14 1 
    18   14   15 1 
    19   15   16 2 
    20   15   18 1 
    21   16   17 1 
    22   19   20 1 
    23   19   27 1 
    24   19   28 1 
    25   20   21 1 
    26   21   22 1 
    27   22   23 1 
    28   23   24 1 
    29   24   25 1 
    30   25   26 1 
    31   29    2 1 
@<TRIPOS>SUBSTRUCTURE
1 MOL         1
@<TRIPOS>MOLECULE
query molecule
   29    31     1     0     0
SMALL
NO_CHARGE

@<TRIPOS>ATOM
      1 C1        -39.2560 -164.7615  306.5457 C.ar      1 MOL     0.0777
      2 O2        -38.3372 -165.7299  306.2907 O.3       1 MOL    -0.3605
      3 C3        -39.4088 -163.7042  305.6619 C.ar      1 MOL     0.0376
      4 C4        -40.3420 -162.7191  305.9217 C.ar      1 MOL    -0.0372
      5 C5        -41.1230 -162.7894  307.0575 C.ar      1 MOL     0.0379
      6 C6        -40.9775 -163.8495  307.9473 C.ar      1 MOL     0.0821
      7 O7        -41.7776 -163.8867  309.0445 O.3       1 MOL    -0.3395
      8 C8        -41.4357 -164.7686  310.1148 C.3       1 MOL     0.0730
      9 C9        -42.6138 -164.9064  311.0812 C.3       1 MOL     0.0428
     10 C10       -40.2208 -164.2098  310.8582 C.3       1 MOL     0.0428
     11 C11       -41.0928 -166.1363  309.5214 C.3       1 MOL     0.0329
     12 C13       -39.8475 -165.9884  308.6357 C.3       1 MOL     0.0348
     13 C15       -40.0384 -164.8343  307.6910 C.ar      1 MOL     0.0162
     14 C16       -39.6583 -167.2959  307.8656 C.3       1 MOL     0.0390
     15 C17       -39.7011 -168.4521  308.8253 C.2       1 MOL    -0.0767
     16 C18       -40.1824 -168.3828  310.0257 C.2       1 MOL    -0.0277
     17 C19       -40.7645 -167.1362  310.6313 C.3       1 MOL     0.0342
     18 C20       -39.1488 -169.7753  308.3615 C.3       1 MOL     0.0389
     19 C21       -40.5069 -161.5668  304.9646 C.3       1 MOL    -0.0102
     20 C22       -41.0908 -160.3646  305.7096 C.3       1 MOL     0.0110
     21 C23       -39.9980 -159.3146  305.9191 C.3       1 MOL     0.0009
     22 C24       -40.3501 -158.4463  307.1287 C.3       1 MOL     0.0002
     23 C25       -39.6032 -157.1143  307.0352 C.3       1 MOL     0.0009
     24 C26       -40.2872 -156.2176  306.0014 C.3       1 MOL     0.0115
     25 C27       -40.3025 -154.7742  306.5086 C.3       1 MOL     0.0805
     26 Br28      -40.9745 -153.5886  305.0916 Br        1 MOL    -0.0928
     27 C29       -39.1443 -161.1911  304.3790 C.3       1 MOL     0.0159
     28 C30       -41.4531 -161.9745  303.8336 C.3       1 MOL     0.0159
     29 H2        -37.7556 -165.8272  307.0482 H         1 MOL     0.2183
@<TRIPOS>BOND
     1    1   13 ar
     2    1    2 1 
     3    1    3 ar
     4    3    4 ar
     5    4    5 ar
     6    4   19 1 
     7    5    6 ar
     8    6   13 ar
     9    6    7 1 
    10    7    8 1 
    11    8    9 1 
    12    8   10 1 
    13    8   11 1 
    14   11   17 1 
    15   11   12 1 
    16   12   13 1 
    17   12   14 1 
    18   14   15 1 
    19   15   16 2 
    20   15   18 1 
    21   16   17 1 
    22   19   20 1 
    23   19   27 1 
    24   19   28 1 
    25   20   21 1 
    26   21   22 1 
    27   22   23 1 
    28   23   24 1 
    29   24   25 1 
    30   25   26 1 
    31   29    2 1 
@<TRIPOS>SUBSTRUCTURE
1 MOL         1
@<TRIPOS>MOLECULE
query molecule
   29    31     1     0     0
SMALL
NO_CHARGE

@<TRIPOS>ATOM
      1 C1        -41.4853 -163.9670  308.2675 C.ar      1 MOL     0.0777
      2 O2        -42.2510 -163.6927  309.3562 O.3       1 MOL    -0.3605
      3 C3        -41.3365 -163.0155  307.2700 C.ar      1 MOL     0.0376
      4 C4        -40.5591 -163.2948  306.1627 C.ar      1 MOL    -0.0372
      5 C5        -39.9289 -164.5177  306.0515 C.ar      1 MOL     0.0379
      6 C6        -40.0709 -165.4762  307.0503 C.ar      1 MOL     0.0821
      7 O7        -39.4206 -166.6602  306.9070 O.3       1 MOL    -0.3395
      8 C8        -39.7991 -167.7574  307.7394 C.3       1 MOL     0.0730
      9 C9        -38.7482 -168.8666  307.6600 C.3       1 MOL     0.0428
     10 C10       -41.1542 -168.2959  307.2761 C.3       1 MOL     0.0428
     11 C11       -39.9096 -167.2539  309.1798 C.3       1 MOL     0.0329
     12 C13       -41.0383 -166.2155  309.2511 C.3       1 MOL     0.0348
     13 C15       -40.8547 -165.1996  308.1579 C.ar      1 MOL     0.0162
     14 C16       -40.9810 -165.5502  310.6267 C.3       1 MOL     0.0390
     15 C17       -40.9359 -166.6091  311.6927 C.2       1 MOL    -0.0767
     16 C18       -40.6249 -167.8473  311.4745 C.2       1 MOL    -0.0277
     17 C19       -40.2669 -168.4025  310.1243 C.3       1 MOL     0.0342
     18 C20       -41.2744 -166.2046  313.1044 C.3       1 MOL     0.0389
     19 C21       -40.3993 -162.2637  305.0752 C.3       1 MOL    -0.0102
     20 C22       -41.0494 -160.9511  305.5175 C.3       1 MOL     0.0110
     21 C23       -39.9603 -159.9361  305.8701 C.3       1 MOL     0.0009
     22 C24       -40.5529 -158.5255  305.8530 C.3       1 MOL     0.0002
     23 C25       -39.6717 -157.5920  306.6853 C.3       1 MOL     0.0009
     24 C26       -40.3809 -156.2485  306.8668 C.3       1 MOL     0.0115
     25 C27       -39.8155 -155.2346  305.8702 C.3       1 MOL     0.0805
     26 Br28      -41.2509 -154.0301  305.2752 Br        1 MOL    -0.0928
     27 C29       -38.9109 -162.0309  304.8078 C.3       1 MOL     0.0159
     28 C30       -41.0754 -162.7621  303.7964 C.3       1 MOL     0.0159
     29 H2        -42.6458 -162.8230  309.2594 H         1 MOL     0.2183
@<TRIPOS>BOND
     1    1   13 ar
     2    1    2 1 
     3    1    3 ar
     4    3    4 ar
     5    4    5 ar
     6    4   19 1 
     7    5    6 ar
     8    6   13 ar
     9    6    7 1 
    10    7    8 1 
    11    8    9 1 
    12    8   10 1 
    13    8   11 1 
    14   11   17 1 
    15   11   12 1 
    16   12   13 1 
    17   12   14 1 
    18   14   15 1 
    19   15   16 2 
    20   15   18 1 
    21   16   17 1 
    22   19   20 1 
    23   19   27 1 
    24   19   28 1 
    25   20   21 1 
    26   21   22 1 
    27   22   23 1 
    28   23   24 1 
    29   24   25 1 
    30   25   26 1 
    31   29    2 1 
@<TRIPOS>SUBSTRUCTURE
1 MOL         1
@<TRIPOS>MOLECULE
query molecule
   29    31     1     0     0
SMALL
NO_CHARGE

@<TRIPOS>ATOM
      1 C1        -41.5438 -163.5498  308.0031 C.ar      1 MOL     0.0777
      2 O2        -42.4494 -163.4466  309.0112 O.3       1 MOL    -0.3605
      3 C3        -41.3898 -162.5063  307.1032 C.ar      1 MOL     0.0376
      4 C4        -40.4701 -162.6117  306.0777 C.ar      1 MOL    -0.0372
      5 C5        -39.7037 -163.7526  305.9515 C.ar      1 MOL     0.0379
      6 C6        -39.8504 -164.8026  306.8530 C.ar      1 MOL     0.0821
      7 O7        -39.0647 -165.9002  306.7002 O.3       1 MOL    -0.3395
      8 C8        -39.4120 -167.0966  307.3987 C.3       1 MOL     0.0730
      9 C9        -38.2456 -168.0861  307.3620 C.3       1 MOL     0.0428
     10 C10       -40.6423 -167.7242  306.7403 C.3       1 MOL     0.0428
     11 C11       -39.7332 -166.7318  308.8493 C.3       1 MOL     0.0329
     12 C13       -40.9681 -165.8195  308.8636 C.3       1 MOL     0.0348
     13 C15       -40.7761 -164.7005  307.8778 C.ar      1 MOL     0.0162
     14 C16       -41.1338 -165.2722  310.2818 C.3       1 MOL     0.0390
     15 C17       -41.0923 -166.4091  311.2644 C.2       1 MOL    -0.0767
     16 C18       -40.6278 -167.5873  310.9935 C.2       1 MOL    -0.0277
     17 C19       -40.0663 -167.9868  309.6576 C.3       1 MOL     0.0342
     18 C20       -41.6251 -166.1623  312.6523 C.3       1 MOL     0.0389
     19 C21       -40.3040 -161.4805  305.0959 C.3       1 MOL    -0.0102
     20 C22       -40.9876 -160.2258  305.6431 C.3       1 MOL     0.0110
     21 C23       -39.9371 -159.1436  305.9001 C.3       1 MOL     0.0009
     22 C24       -40.3723 -158.2823  307.0875 C.3       1 MOL     0.0002
     23 C25       -39.8004 -156.8718  306.9311 C.3       1 MOL     0.0009
     24 C26       -40.6599 -156.0795  305.9440 C.3       1 MOL     0.0115
     25 C27       -40.7110 -154.6125  306.3755 C.3       1 MOL     0.0805
     26 Br28      -41.8580 -153.6047  305.1369 Br        1 MOL    -0.0928
     27 C29       -38.8143 -161.2001  304.8883 C.3       1 MOL     0.0159
     28 C30       -40.9412 -161.8670  303.7598 C.3       1 MOL     0.0159
     29 H2        -43.2259 -162.9774  308.6975 H         1 MOL     0.2183
@<TRIPOS>BOND
     1    1   13 ar
     2    1    2 1 
     3    1    3 ar
     4    3    4 ar
     5    4    5 ar
     6    4   19 1 
     7    5    6 ar
     8    6   13 ar
     9    6    7 1 
    10    7    8 1 
    11    8    9 1 
    12    8   10 1 
    13    8   11 1 
    14   11   17 1 
    15   11   12 1 
    16   12   13 1 
    17   12   14 1 
    18   14   15 1 
    19   15   16 2 
    20   15   18 1 
    21   16   17 1 
    22   19   20 1 
    23   19   27 1 
    24   19   28 1 
    25   20   21 1 
    26   21   22 1 
    27   22   23 1 
    28   23   24 1 
    29   24   25 1 
    30   25   26 1 
    31   29    2 1 
@<TRIPOS>SUBSTRUCTURE
1 MOL         1
@<TRIPOS>MOLECULE
query molecule
   29    31     1     0     0
SMALL
NO_CHARGE

@<TRIPOS>ATOM
      1 C1        -39.8813 -165.1453  307.2064 C.ar      1 MOL     0.0777
      2 O2        -39.1824 -166.3007  307.3596 O.3       1 MOL    -0.3605
      3 C3        -39.8779 -164.4929  305.9829 C.ar      1 MOL     0.0376
      4 C4        -40.5875 -163.3178  305.8275 C.ar      1 MOL    -0.0372
      5 C5        -41.3012 -162.7961  306.8874 C.ar      1 MOL     0.0379
      6 C6        -41.3119 -163.4472  308.1173 C.ar      1 MOL     0.0821
      7 O7        -42.0401 -162.9064  309.1285 O.3       1 MOL    -0.3395
      8 C8        -41.8138 -163.3675  310.4613 C.3       1 MOL     0.0730
      9 C9        -42.9392 -162.8915  311.3821 C.3       1 MOL     0.0428
     10 C10       -40.4735 -162.8242  310.9606 C.3       1 MOL     0.0428
     11 C11       -41.7753 -164.8967  310.4421 C.3       1 MOL     0.0329
     12 C13       -40.5775 -165.3465  309.5934 C.3       1 MOL     0.0348
     13 C15       -40.5963 -164.6221  308.2760 C.ar      1 MOL     0.0162
     14 C16       -40.6881 -166.8573  309.3847 C.3       1 MOL     0.0390
     15 C17       -40.8978 -167.5314  310.7119 C.2       1 MOL    -0.0767
     16 C18       -41.2872 -166.9189  311.7846 C.2       1 MOL    -0.0277
     17 C19       -41.5828 -165.4468  311.8562 C.3       1 MOL     0.0342
     18 C20       -40.6381 -169.0132  310.7999 C.3       1 MOL     0.0389
     19 C21       -40.5819 -162.6047  304.4998 C.3       1 MOL    -0.0102
     20 C22       -42.0131 -162.5060  303.9678 C.3       1 MOL     0.0110
     21 C23       -42.7855 -161.4594  304.7733 C.3       1 MOL     0.0009
     22 C24       -43.8768 -160.8436  303.8954 C.3       1 MOL     0.0002
     23 C25       -45.2434 -161.3750  304.3325 C.3       1 MOL     0.0009
     24 C26       -45.3921 -162.8301  303.8839 C.3       1 MOL     0.0115
     25 C27       -46.8083 -163.0575  303.3516 C.3       1 MOL     0.0805
     26 Br28      -47.1833 -164.9864  303.2895 Br        1 MOL    -0.0928
     27 C29       -40.0062 -161.1985  304.6786 C.3       1 MOL     0.0159
     28 C30       -39.7208 -163.3856  303.5050 C.3       1 MOL     0.0159
     29 H2        -38.4528 -166.3190  306.7360 H         1 MOL     0.2183
@<TRIPOS>BOND
     1    1   13 ar
     2    1    2 1 
     3    1    3 ar
     4    3    4 ar
     5    4    5 ar
     6    4   19 1 
     7    5    6 ar
     8    6   13 ar
     9    6    7 1 
    10    7    8 1 
    11    8    9 1 
    12    8   10 1 
    13    8   11 1 
    14   11   17 1 
    15   11   12 1 
    16   12   13 1 
    17   12   14 1 
    18   14   15 1 
    19   15   16 2 
    20   15   18 1 
    21   16   17 1 
    22   19   20 1 
    23   19   27 1 
    24   19   28 1 
    25   20   21 1 
    26   21   22 1 
    27   22   23 1 
    28   23   24 1 
    29   24   25 1 
    30   25   26 1 
    31   29    2 1 
@<TRIPOS>SUBSTRUCTURE
1 MOL         1
@<TRIPOS>MOLECULE
query molecule
   29    31     1     0     0
SMALL
NO_CHARGE

@<TRIPOS>ATOM
      1 C1        -39.9410 -165.1516  307.0667 C.ar      1 MOL     0.0777
      2 O2        -39.1210 -166.2251  307.2156 O.3       1 MOL    -0.3605
      3 C3        -40.0105 -164.4995  305.8451 C.ar      1 MOL     0.0376
      4 C4        -40.8431 -163.4074  305.6941 C.ar      1 MOL    -0.0372
      5 C5        -41.6069 -162.9687  306.7567 C.ar      1 MOL     0.0379
      6 C6        -41.5449 -163.6204  307.9848 C.ar      1 MOL     0.0821
      7 O7        -42.3252 -163.1641  308.9987 O.3       1 MOL    -0.3395
      8 C8        -42.0478 -163.6015  310.3298 C.3       1 MOL     0.0730
      9 C9        -43.2163 -163.2523  311.2538 C.3       1 MOL     0.0428
     10 C10       -40.7731 -162.9179  310.8284 C.3       1 MOL     0.0428
     11 C11       -41.8444 -165.1176  310.3062 C.3       1 MOL     0.0329
     12 C13       -40.6067 -165.4331  309.4543 C.3       1 MOL     0.0348
     13 C15       -40.7062 -164.7115  308.1390 C.ar      1 MOL     0.0162
     14 C16       -40.5538 -166.9465  309.2415 C.3       1 MOL     0.0390
     15 C17       -40.6869 -167.6427  310.5672 C.2       1 MOL    -0.0767
     16 C18       -41.1381 -167.0787  311.6422 C.2       1 MOL    -0.0277
     17 C19       -41.5908 -165.6474  311.7185 C.3       1 MOL     0.0342
     18 C20       -40.2685 -169.0880  310.6506 C.3       1 MOL     0.0389
     19 C21       -40.9172 -162.6945  304.3684 C.3       1 MOL    -0.0102
     20 C22       -42.3664 -162.2938  304.0851 C.3       1 MOL     0.0110
     21 C23       -42.6668 -160.9547  304.7613 C.3       1 MOL     0.0009
     22 C24       -44.0201 -160.4307  304.2764 C.3       1 MOL     0.0002
     23 C25       -45.1359 -161.3341  304.8049 C.3       1 MOL     0.0009
     24 C26       -45.7177 -162.1540  303.6515 C.3       1 MOL     0.0115
     25 C27       -45.7743 -163.6295  304.0523 C.3       1 MOL     0.0805
     26 Br28      -47.3894 -164.4535  303.2923 Br        1 MOL    -0.0928
     27 C29       -40.0411 -161.4410  304.4139 C.3       1 MOL     0.0159
     28 C30       -40.4194 -163.6247  303.2605 C.3       1 MOL     0.0159
     29 H2        -38.2814 -165.9386  307.5822 H         1 MOL     0.2183
@<TRIPOS>BOND
     1    1   13 ar
     2    1    2 1 
     3    1    3 ar
     4    3    4 ar
     5    4    5 ar
     6    4   19 1 
     7    5    6 ar
     8    6   13 ar
     9    6    7 1 
    10    7    8 1 
    11    8    9 1 
    12    8   10 1 
    13    8   11 1 
    14   11   17 1 
    15   11   12 1 
    16   12   13 1 
    17   12   14 1 
    18   14   15 1 
    19   15   16 2 
    20   15   18 1 
    21   16   17 1 
    22   19   20 1 
    23   19   27 1 
    24   19   28 1 
    25   20   21 1 
    26   21   22 1 
    27   22   23 1 
    28   23   24 1 
    29   24   25 1 
    30   25   26 1 
    31   29    2 1 
@<TRIPOS>SUBSTRUCTURE
1 MOL         1
@<TRIPOS>MOLECULE
query molecule
   29    31     1     0     0
SMALL
NO_CHARGE

@<TRIPOS>ATOM
      1 C1        -41.7120 -163.9778  308.3710 C.ar      1 MOL     0.0777
      2 O2        -42.5276 -163.7753  309.4390 O.3       1 MOL    -0.3605
      3 C3        -41.6108 -163.0080  307.3852 C.ar      1 MOL     0.0376
      4 C4        -40.7827 -163.2145  306.2988 C.ar      1 MOL    -0.0372
      5 C5        -40.0548 -164.3827  306.1970 C.ar      1 MOL     0.0379
      6 C6        -40.1487 -165.3590  307.1842 C.ar      1 MOL     0.0821
      7 O7        -39.4029 -166.4866  307.0512 O.3       1 MOL    -0.3395
      8 C8        -39.7169 -167.6182  307.8642 C.3       1 MOL     0.0730
      9 C9        -38.5796 -168.6402  307.8072 C.3       1 MOL     0.0428
     10 C10       -41.0114 -168.2575  307.3578 C.3       1 MOL     0.0428
     11 C11       -39.9075 -167.1388  309.3044 C.3       1 MOL     0.0329
     12 C13       -41.1165 -166.1934  309.3505 C.3       1 MOL     0.0348
     13 C15       -40.9830 -165.1558  308.2706 C.ar      1 MOL     0.0162
     14 C16       -41.1509 -165.5389  310.7321 C.3       1 MOL     0.0390
     15 C17       -41.0524 -166.6012  311.7912 C.2       1 MOL    -0.0767
     16 C18       -40.6383 -167.8088  311.5730 C.2       1 MOL    -0.0277
     17 C19       -40.1994 -168.3211  310.2297 C.3       1 MOL     0.0342
     18 C20       -41.4617 -166.2382  313.1954 C.3       1 MOL     0.0389
     19 C21       -40.6743 -162.1636  305.2241 C.3       1 MOL    -0.0102
     20 C22       -41.0261 -160.7953  305.8114 C.3       1 MOL     0.0110
     21 C23       -39.8833 -159.8148  305.5403 C.3       1 MOL     0.0009
     22 C24       -39.9089 -158.6996  306.5875 C.3       1 MOL     0.0002
     23 C25       -40.2948 -157.3795  305.9173 C.3       1 MOL     0.0009
     24 C26       -40.5963 -156.3316  306.9905 C.3       1 MOL     0.0115
     25 C27       -41.8838 -155.5879  306.6299 C.3       1 MOL     0.0805
     26 Br28      -41.6550 -153.6688  306.9902 Br        1 MOL    -0.0928
     27 C29       -39.2436 -162.1336  304.6826 C.3       1 MOL     0.0159
     28 C30       -41.6430 -162.4950  304.0872 C.3       1 MOL     0.0159
     29 H2        -42.7212 -162.8386  309.5212 H         1 MOL     0.2183
@<TRIPOS>BOND
     1    1   13 ar
     2    1    2 1 
     3    1    3 ar
     4    3    4 ar
     5    4    5 ar
     6    4   19 1 
     7    5    6 ar
     8    6   13 ar
     9    6    7 1 
    10    7    8 1 
    11    8    9 1 
    12    8   10 1 
    13    8   11 1 
    14   11   17 1 
    15   11   12 1 
    16   12   13 1 
    17   12   14 1 
    18   14   15 1 
    19   15   16 2 
    20   15   18 1 
    21   16   17 1 
    22   19   20 1 
    23   19   27 1 
    24   19   28 1 
    25   20   21 1 
    26   21   22 1 
    27   22   23 1 
    28   23   24 1 
    29   24   25 1 
    30   25   26 1 
    31   29    2 1 
@<TRIPOS>SUBSTRUCTURE
1 MOL         1
@<TRIPOS>MOLECULE
query molecule
   29    31     1     0     0
SMALL
NO_CHARGE

@<TRIPOS>ATOM
      1 C1        -39.6561 -164.7566  306.8734 C.ar      1 MOL     0.0777
      2 O2        -38.9290 -165.8930  306.7093 O.3       1 MOL    -0.3605
      3 C3        -39.6836 -163.8027  305.8675 C.ar      1 MOL     0.0376
      4 C4        -40.4218 -162.6470  306.0348 C.ar      1 MOL    -0.0372
      5 C5        -41.1333 -162.4441  307.2000 C.ar      1 MOL     0.0379
      6 C6        -41.1131 -163.3986  308.2125 C.ar      1 MOL     0.0821
      7 O7        -41.8401 -163.1647  309.3358 O.3       1 MOL    -0.3395
      8 C8        -41.5859 -163.9575  310.4965 C.3       1 MOL     0.0730
      9 C9        -42.7097 -163.7721  311.5181 C.3       1 MOL     0.0428
     10 C10       -40.2520 -163.5323  311.1135 C.3       1 MOL     0.0428
     11 C11       -41.5127 -165.4251  310.0710 C.3       1 MOL     0.0329
     12 C13       -40.3162 -165.6025  309.1254 C.3       1 MOL     0.0348
     13 C15       -40.3687 -164.5548  308.0483 C.ar      1 MOL     0.0162
     14 C16       -40.3949 -167.0059  308.5232 C.3       1 MOL     0.0390
     15 C17       -40.5718 -168.0135  309.6247 C.2       1 MOL    -0.0767
     16 C18       -40.9611 -167.7182  310.8241 C.2       1 MOL    -0.0277
     17 C19       -41.2892 -166.3261  311.2866 C.3       1 MOL     0.0342
     18 C20       -40.2773 -169.4583  309.3137 C.3       1 MOL     0.0389
     19 C21       -40.4499 -161.6069  304.9446 C.3       1 MOL    -0.0102
     20 C22       -41.3705 -162.0757  303.8161 C.3       1 MOL     0.0110
     21 C23       -42.5811 -162.7970  304.4119 C.3       1 MOL     0.0009
     22 C24       -43.5620 -163.1561  303.2938 C.3       1 MOL     0.0002
     23 C25       -44.9620 -163.3394  303.8830 C.3       1 MOL     0.0009
     24 C26       -45.6777 -161.9879  303.9272 C.3       1 MOL     0.0115
     25 C27       -45.1339 -161.1606  305.0937 C.3       1 MOL     0.0805
     26 Br28      -44.5201 -159.4151  304.4292 Br        1 MOL    -0.0928
     27 C29       -40.9720 -160.2860  305.5132 C.3       1 MOL     0.0159
     28 C30       -39.0356 -161.4030  304.3976 C.3       1 MOL     0.0159
     29 H2        -39.4546 -166.5446  306.2396 H         1 MOL     0.2183
@<TRIPOS>BOND
     1    1   13 ar
     2    1    2 1 
     3    1    3 ar
     4    3    4 ar
     5    4    5 ar
     6    4   19 1 
     7    5    6 ar
     8    6   13 ar
     9    6    7 1 
    10    7    8 1 
    11    8    9 1 
    12    8   10 1 
    13    8   11 1 
    14   11   17 1 
    15   11   12 1 
    16   12   13 1 
    17   12   14 1 
    18   14   15 1 
    19   15   16 2 
    20   15   18 1 
    21   16   17 1 
    22   19   20 1 
    23   19   27 1 
    24   19   28 1 
    25   20   21 1 
    26   21   22 1 
    27   22   23 1 
    28   23   24 1 
    29   24   25 1 
    30   25   26 1 
    31   29    2 1 
@<TRIPOS>SUBSTRUCTURE
1 MOL         1
@<TRIPOS>MOLECULE
query molecule
   29    31     1     0     0
SMALL
NO_CHARGE

@<TRIPOS>ATOM
      1 C1        -39.2555 -164.7978  306.5719 C.ar      1 MOL     0.0777
      2 O2        -38.3948 -165.8113  306.2912 O.3       1 MOL    -0.3605
      3 C3        -39.3209 -163.6949  305.7341 C.ar      1 MOL     0.0376
      4 C4        -40.1951 -162.6640  306.0202 C.ar      1 MOL    -0.0372
      5 C5        -41.0041 -162.7337  307.1362 C.ar      1 MOL     0.0379
      6 C6        -40.9463 -163.8390  307.9797 C.ar      1 MOL     0.0821
      7 O7        -41.7714 -163.8728  309.0583 O.3       1 MOL    -0.3395
      8 C8        -41.5104 -164.8211  310.0939 C.3       1 MOL     0.0730
      9 C9        -42.7162 -164.9249  311.0300 C.3       1 MOL     0.0428
     10 C10       -40.2792 -164.3752  310.8854 C.3       1 MOL     0.0428
     11 C11       -41.2421 -166.1807  309.4459 C.3       1 MOL     0.0329
     12 C13       -39.9704 -166.0747  308.5921 C.3       1 MOL     0.0348
     13 C15       -40.0663 -164.8702  307.6973 C.ar      1 MOL     0.0162
     14 C16       -39.8478 -167.3565  307.7674 C.3       1 MOL     0.0390
     15 C17       -39.9855 -168.5486  308.6727 C.2       1 MOL    -0.0767
     16 C18       -40.4880 -168.5013  309.8654 C.2       1 MOL    -0.0277
     17 C19       -41.0030 -167.2476  310.5154 C.3       1 MOL     0.0342
     18 C20       -39.5084 -169.8831  308.1602 C.3       1 MOL     0.0389
     19 C21       -40.2649 -161.4624  305.1133 C.3       1 MOL    -0.0102
     20 C22       -41.2792 -161.7235  303.9979 C.3       1 MOL     0.0110
     21 C23       -42.4643 -162.5108  304.5603 C.3       1 MOL     0.0009
     22 C24       -43.5263 -162.6808  303.4720 C.3       1 MOL     0.0002
     23 C25       -44.8332 -163.1620  304.1054 C.3       1 MOL     0.0009
     24 C26       -45.4320 -162.0392  304.9548 C.3       1 MOL     0.0115
     25 C27       -45.9832 -160.9449  304.0386 C.3       1 MOL     0.0805
     26 Br28      -44.7513 -159.4127  304.0331 Br        1 MOL    -0.0928
     27 C29       -40.6996 -160.2381  305.9214 C.3       1 MOL     0.0159
     28 C30       -38.8871 -161.2056  304.4998 C.3       1 MOL     0.0159
     29 H2        -37.5012 -165.5454  306.5199 H         1 MOL     0.2183
@<TRIPOS>BOND
     1    1   13 ar
     2    1    2 1 
     3    1    3 ar
     4    3    4 ar
     5    4    5 ar
     6    4   19 1 
     7    5    6 ar
     8    6   13 ar
     9    6    7 1 
    10    7    8 1 
    11    8    9 1 
    12    8   10 1 
    13    8   11 1 
    14   11   17 1 
    15   11   12 1 
    16   12   13 1 
    17   12   14 1 
    18   14   15 1 
    19   15   16 2 
    20   15   18 1 
    21   16   17 1 
    22   19   20 1 
    23   19   27 1 
    24   19   28 1 
    25   20   21 1 
    26   21   22 1 
    27   22   23 1 
    28   23   24 1 
    29   24   25 1 
    30   25   26 1 
    31   29    2 1 
@<TRIPOS>SUBSTRUCTURE
1 MOL         1
@<TRIPOS>MOLECULE
query molecule
   29    31     1     0     0
SMALL
NO_CHARGE

@<TRIPOS>ATOM
      1 C1        -41.7585 -164.1783  308.3133 C.ar      1 MOL     0.0777
      2 O2        -42.6303 -164.0260  309.3446 O.3       1 MOL    -0.3605
      3 C3        -41.6609 -163.1954  307.3402 C.ar      1 MOL     0.0376
      4 C4        -40.7755 -163.3507  306.2911 C.ar      1 MOL    -0.0372
      5 C5        -39.9871 -164.4810  306.2139 C.ar      1 MOL     0.0379
      6 C6        -40.0772 -165.4701  307.1888 C.ar      1 MOL     0.0821
      7 O7        -39.2715 -166.5585  307.0815 O.3       1 MOL    -0.3395
      8 C8        -39.5656 -167.7118  307.8711 C.3       1 MOL     0.0730
      9 C9        -38.3780 -168.6764  307.8584 C.3       1 MOL     0.0428
     10 C10       -40.8030 -168.4087  307.3019 C.3       1 MOL     0.0428
     11 C11       -39.8443 -167.2560  309.3046 C.3       1 MOL     0.0329
     12 C13       -41.0992 -166.3713  309.3027 C.3       1 MOL     0.0348
     13 C15       -40.9685 -165.3182  308.2376 C.ar      1 MOL     0.0162
     14 C16       -41.2280 -165.7325  310.6861 C.3       1 MOL     0.0390
     15 C17       -41.1250 -166.7987  311.7408 C.2       1 MOL    -0.0767
     16 C18       -40.6426 -167.9825  311.5328 C.2       1 MOL    -0.0277
     17 C19       -40.1189 -168.4599  310.2071 C.3       1 MOL     0.0342
     18 C20       -41.6145 -166.4695  313.1275 C.3       1 MOL     0.0389
     19 C21       -40.6707 -162.2857  305.2301 C.3       1 MOL    -0.0102
     20 C22       -40.9638 -160.9178  305.8499 C.3       1 MOL     0.0110
     21 C23       -39.8480 -159.9395  305.4775 C.3       1 MOL     0.0009
     22 C24       -39.8023 -158.8040  306.5020 C.3       1 MOL     0.0002
     23 C25       -40.2416 -157.4985  305.8362 C.3       1 MOL     0.0009
     24 C26       -40.4688 -156.4306  306.9081 C.3       1 MOL     0.0115
     25 C27       -40.1494 -155.0508  306.3292 C.3       1 MOL     0.0805
     26 Br28      -38.4283 -154.4231  307.0426 Br        1 MOL    -0.0928
     27 C29       -39.2577 -162.2875  304.6434 C.3       1 MOL     0.0159
     28 C30       -41.6843 -162.5702  304.1199 C.3       1 MOL     0.0159
     29 H2        -42.7748 -163.0909  309.5065 H         1 MOL     0.2183
@<TRIPOS>BOND
     1    1   13 ar
     2    1    2 1 
     3    1    3 ar
     4    3    4 ar
     5    4    5 ar
     6    4   19 1 
     7    5    6 ar
     8    6   13 ar
     9    6    7 1 
    10    7    8 1 
    11    8    9 1 
    12    8   10 1 
    13    8   11 1 
    14   11   17 1 
    15   11   12 1 
    16   12   13 1 
    17   12   14 1 
    18   14   15 1 
    19   15   16 2 
    20   15   18 1 
    21   16   17 1 
    22   19   20 1 
    23   19   27 1 
    24   19   28 1 
    25   20   21 1 
    26   21   22 1 
    27   22   23 1 
    28   23   24 1 
    29   24   25 1 
    30   25   26 1 
    31   29    2 1 
@<TRIPOS>SUBSTRUCTURE
1 MOL         1
@<TRIPOS>MOLECULE
query molecule
   29    31     1     0     0
SMALL
NO_CHARGE

@<TRIPOS>ATOM
      1 C1        -39.3657 -165.0037  306.8324 C.ar      1 MOL     0.0777
      2 O2        -38.6188 -166.1079  306.5681 O.3       1 MOL    -0.3605
      3 C3        -39.4051 -163.9613  305.9189 C.ar      1 MOL     0.0376
      4 C4        -40.1634 -162.8384  306.1881 C.ar      1 MOL    -0.0372
      5 C5        -40.8832 -162.7559  307.3629 C.ar      1 MOL     0.0379
      6 C6        -40.8511 -163.7997  308.2829 C.ar      1 MOL     0.0821
      7 O7        -41.5868 -163.6827  309.4188 O.3       1 MOL    -0.3395
      8 C8        -41.3242 -164.5752  310.5026 C.3       1 MOL     0.0730
      9 C9        -42.4554 -164.5037  311.5304 C.3       1 MOL     0.0428
     10 C10       -40.0003 -164.1871  311.1641 C.3       1 MOL     0.0428
     11 C11       -41.2244 -165.9958  309.9437 C.3       1 MOL     0.0329
     12 C13       -40.0210 -166.0652  308.9927 C.3       1 MOL     0.0348
     13 C15       -40.0867 -164.9232  308.0168 C.ar      1 MOL     0.0162
     14 C16       -40.0735 -167.4079  308.2628 C.3       1 MOL     0.0390
     15 C17       -40.2380 -168.5159  309.2653 C.2       1 MOL    -0.0767
     16 C18       -40.6373 -168.3394  310.4847 C.2       1 MOL    -0.0277
     17 C19       -40.9909 -167.0016  311.0720 C.3       1 MOL     0.0342
     18 C20       -39.9177 -169.9207  308.8237 C.3       1 MOL     0.0389
     19 C21       -40.2044 -161.7024  305.1986 C.3       1 MOL    -0.0102
     20 C22       -41.2215 -162.0192  304.1004 C.3       1 MOL     0.0110
     21 C23       -42.4048 -162.7778  304.7046 C.3       1 MOL     0.0009
     22 C24       -43.3948 -163.1444  303.5970 C.3       1 MOL     0.0002
     23 C25       -44.7655 -163.4320  304.2128 C.3       1 MOL     0.0009
     24 C26       -45.6625 -162.2022  304.0578 C.3       1 MOL     0.0115
     25 C27       -45.2089 -161.1139  305.0327 C.3       1 MOL     0.0805
     26 Br28      -44.8644 -159.4501  304.0437 Br        1 MOL    -0.0928
     27 C29       -40.6138 -160.4150  305.9168 C.3       1 MOL     0.0159
     28 C30       -38.8197 -161.5198  304.5741 C.3       1 MOL     0.0159
     29 H2        -39.1722 -166.7795  306.1629 H         1 MOL     0.2183
@<TRIPOS>BOND
     1    1   13 ar
     2    1    2 1 
     3    1    3 ar
     4    3    4 ar
     5    4    5 ar
     6    4   19 1 
     7    5    6 ar
     8    6   13 ar
     9    6    7 1 
    10    7    8 1 
    11    8    9 1 
    12    8   10 1 
    13    8   11 1 
    14   11   17 1 
    15   11   12 1 
    16   12   13 1 
    17   12   14 1 
    18   14   15 1 
    19   15   16 2 
    20   15   18 1 
    21   16   17 1 
    22   19   20 1 
    23   19   27 1 
    24   19   28 1 
    25   20   21 1 
    26   21   22 1 
    27   22   23 1 
    28   23   24 1 
    29   24   25 1 
    30   25   26 1 
    31   29    2 1 
@<TRIPOS>SUBSTRUCTURE
1 MOL         1
@<TRIPOS>MOLECULE
query molecule
   29    31     1     0     0
SMALL
NO_CHARGE

@<TRIPOS>ATOM
      1 C1        -41.6483 -163.9463  307.9437 C.ar      1 MOL     0.0777
      2 O2        -42.5054 -163.8019  308.9885 O.3       1 MOL    -0.3605
      3 C3        -41.5900 -162.9726  306.9583 C.ar      1 MOL     0.0376
      4 C4        -40.7196 -163.1200  305.8956 C.ar      1 MOL    -0.0372
      5 C5        -39.9072 -164.2330  305.8171 C.ar      1 MOL     0.0379
      6 C6        -39.9579 -165.2127  306.8042 C.ar      1 MOL     0.0821
      7 O7        -39.1297 -166.2838  306.6948 O.3       1 MOL    -0.3395
      8 C8        -39.3838 -167.4344  307.5022 C.3       1 MOL     0.0730
      9 C9        -38.1750 -168.3720  307.4792 C.3       1 MOL     0.0428
     10 C10       -40.6147 -168.1655  306.9625 C.3       1 MOL     0.0428
     11 C11       -39.6479 -166.9686  308.9352 C.3       1 MOL     0.0329
     12 C13       -40.9224 -166.1125  308.9456 C.3       1 MOL     0.0348
     13 C15       -40.8342 -165.0689  307.8668 C.ar      1 MOL     0.0162
     14 C16       -41.0417 -165.4609  310.3239 C.3       1 MOL     0.0390
     15 C17       -40.8963 -166.5124  311.3883 C.2       1 MOL    -0.0767
     16 C18       -40.3908 -167.6874  311.1850 C.2       1 MOL    -0.0277
     17 C19       -39.8795 -168.1680  309.8557 C.3       1 MOL     0.0342
     18 C20       -41.3691 -166.1785  312.7797 C.3       1 MOL     0.0389
     19 C21       -40.6574 -162.0650  304.8212 C.3       1 MOL    -0.0102
     20 C22       -41.2712 -160.7656  305.3463 C.3       1 MOL     0.0110
     21 C23       -40.2561 -160.0450  306.2358 C.3       1 MOL     0.0009
     22 C24       -39.9951 -158.6436  305.6799 C.3       1 MOL     0.0002
     23 C25       -41.0766 -157.6857  306.1833 C.3       1 MOL     0.0009
     24 C26       -40.5814 -156.2439  306.0537 C.3       1 MOL     0.0115
     25 C27       -40.6291 -155.5631  307.4230 C.3       1 MOL     0.0805
     26 Br28      -41.1945 -153.6927  307.2057 Br        1 MOL    -0.0928
     27 C29       -39.1984 -161.8190  304.4319 C.3       1 MOL     0.0159
     28 C30       -41.4395 -162.5394  303.5948 C.3       1 MOL     0.0159
     29 H2        -42.7933 -162.8877  309.0428 H         1 MOL     0.2183
@<TRIPOS>BOND
     1    1   13 ar
     2    1    2 1 
     3    1    3 ar
     4    3    4 ar
     5    4    5 ar
     6    4   19 1 
     7    5    6 ar
     8    6   13 ar
     9    6    7 1 
    10    7    8 1 
    11    8    9 1 
    12    8   10 1 
    13    8   11 1 
    14   11   17 1 
    15   11   12 1 
    16   12   13 1 
    17   12   14 1 
    18   14   15 1 
    19   15   16 2 
    20   15   18 1 
    21   16   17 1 
    22   19   20 1 
    23   19   27 1 
    24   19   28 1 
    25   20   21 1 
    26   21   22 1 
    27   22   23 1 
    28   23   24 1 
    29   24   25 1 
    30   25   26 1 
    31   29    2 1 
@<TRIPOS>SUBSTRUCTURE
1 MOL         1
@<TRIPOS>MOLECULE
query molecule
   29    31     1     0     0
SMALL
NO_CHARGE

@<TRIPOS>ATOM
      1 C1        -41.7105 -164.0279  308.2999 C.ar      1 MOL     0.0777
      2 O2        -42.4941 -163.7952  309.3856 O.3       1 MOL    -0.3605
      3 C3        -41.6109 -163.0706  307.3018 C.ar      1 MOL     0.0376
      4 C4        -40.8152 -163.3076  306.1976 C.ar      1 MOL    -0.0372
      5 C5        -40.1180 -164.4940  306.0901 C.ar      1 MOL     0.0379
      6 C6        -40.2105 -165.4579  307.0895 C.ar      1 MOL     0.0821
      7 O7        -39.4953 -166.6043  306.9499 O.3       1 MOL    -0.3395
      8 C8        -39.8157 -167.7200  307.7822 C.3       1 MOL     0.0730
      9 C9        -38.7049 -168.7695  307.7079 C.3       1 MOL     0.0428
     10 C10       -41.1373 -168.3329  307.3148 C.3       1 MOL     0.0428
     11 C11       -39.9590 -167.2219  309.2216 C.3       1 MOL     0.0329
     12 C13       -41.1435 -166.2473  309.2877 C.3       1 MOL     0.0348
     13 C15       -41.0124 -165.2239  308.1940 C.ar      1 MOL     0.0162
     14 C16       -41.1280 -165.5785  310.6628 C.3       1 MOL     0.0390
     15 C17       -41.0284 -166.6323  311.7302 C.2       1 MOL    -0.0767
     16 C18       -40.6487 -167.8517  311.5145 C.2       1 MOL    -0.0277
     17 C19       -40.2557 -168.3876  310.1663 C.3       1 MOL     0.0342
     18 C20       -41.3938 -166.2457  313.1402 C.3       1 MOL     0.0389
     19 C21       -40.7087 -162.2704  305.1095 C.3       1 MOL    -0.0102
     20 C22       -41.6107 -162.6652  303.9384 C.3       1 MOL     0.0110
     21 C23       -42.9775 -163.0995  304.4713 C.3       1 MOL     0.0009
     22 C24       -43.9377 -163.3125  303.2992 C.3       1 MOL     0.0002
     23 C25       -45.3770 -163.3391  303.8173 C.3       1 MOL     0.0009
     24 C26       -45.8820 -161.9058  303.9941 C.3       1 MOL     0.0115
     25 C27       -45.0839 -161.2168  305.1028 C.3       1 MOL     0.0805
     26 Br28      -44.3166 -159.5427  304.4145 Br        1 MOL    -0.0928
     27 C29       -41.1486 -160.9108  305.6562 C.3       1 MOL     0.0159
     28 C30       -39.2587 -162.1820  304.6292 C.3       1 MOL     0.0159
     29 H2        -41.9813 -163.3440  310.0601 H         1 MOL     0.2183
@<TRIPOS>BOND
     1    1   13 ar
     2    1    2 1 
     3    1    3 ar
     4    3    4 ar
     5    4    5 ar
     6    4   19 1 
     7    5    6 ar
     8    6   13 ar
     9    6    7 1 
    10    7    8 1 
    11    8    9 1 
    12    8   10 1 
    13    8   11 1 
    14   11   17 1 
    15   11   12 1 
    16   12   13 1 
    17   12   14 1 
    18   14   15 1 
    19   15   16 2 
    20   15   18 1 
    21   16   17 1 
    22   19   20 1 
    23   19   27 1 
    24   19   28 1 
    25   20   21 1 
    26   21   22 1 
    27   22   23 1 
    28   23   24 1 
    29   24   25 1 
    30   25   26 1 
    31   29    2 1 
@<TRIPOS>SUBSTRUCTURE
1 MOL         1
@<TRIPOS>MOLECULE
query molecule
   29    31     1     0     0
SMALL
NO_CHARGE

@<TRIPOS>ATOM
      1 C1        -38.0705 -165.8223  306.1577 C.ar      1 MOL     0.0777
      2 O2        -36.8409 -166.1993  305.7187 O.3       1 MOL    -0.3605
      3 C3        -38.5551 -164.5591  305.8545 C.ar      1 MOL     0.0376
      4 C4        -39.8047 -164.1755  306.3019 C.ar      1 MOL    -0.0372
      5 C5        -40.5705 -165.0497  307.0465 C.ar      1 MOL     0.0379
      6 C6        -40.0920 -166.3203  307.3518 C.ar      1 MOL     0.0821
      7 O7        -40.8855 -167.1534  308.0740 O.3       1 MOL    -0.3395
      8 C8        -40.3037 -168.3170  308.6636 C.3       1 MOL     0.0730
      9 C9        -41.4007 -169.2737  309.1353 C.3       1 MOL     0.0428
     10 C10       -39.4372 -167.8984  309.8530 C.3       1 MOL     0.0428
     11 C11       -39.4350 -169.0077  307.6105 C.3       1 MOL     0.0329
     12 C13       -38.2848 -168.0651  307.2288 C.3       1 MOL     0.0348
     13 C15       -38.8372 -166.7038  306.9090 C.ar      1 MOL     0.0162
     14 C16       -37.5699 -168.6606  306.0152 C.3       1 MOL     0.0390
     15 C17       -37.2336 -170.0999  306.2896 C.2       1 MOL    -0.0767
     16 C18       -37.7789 -170.8077  307.2272 C.2       1 MOL    -0.0277
     17 C19       -38.8239 -170.2906  308.1760 C.3       1 MOL     0.0342
     18 C20       -36.1961 -170.7607  305.4190 C.3       1 MOL     0.0389
     19 C21       -40.3318 -162.8015  305.9770 C.3       1 MOL    -0.0102
     20 C22       -41.3588 -162.9032  304.8474 C.3       1 MOL     0.0110
     21 C23       -42.7324 -163.2327  305.4352 C.3       1 MOL     0.0009
     22 C24       -43.7611 -162.2210  304.9260 C.3       1 MOL     0.0002
     23 C25       -44.3773 -162.7323  303.6223 C.3       1 MOL     0.0009
     24 C26       -45.7577 -163.3264  303.9093 C.3       1 MOL     0.0115
     25 C27       -46.3172 -163.9567  302.6324 C.3       1 MOL     0.0805
     26 Br28      -48.1688 -164.5387  302.9457 Br        1 MOL    -0.0928
     27 C29       -40.9967 -162.2037  307.2185 C.3       1 MOL     0.0159
     28 C30       -39.1751 -161.9028  305.5353 C.3       1 MOL     0.0159
     29 H2        -36.3402 -165.4216  305.4615 H         1 MOL     0.2183
@<TRIPOS>BOND
     1    1   13 ar
     2    1    2 1 
     3    1    3 ar
     4    3    4 ar
     5    4    5 ar
     6    4   19 1 
     7    5    6 ar
     8    6   13 ar
     9    6    7 1 
    10    7    8 1 
    11    8    9 1 
    12    8   10 1 
    13    8   11 1 
    14   11   17 1 
    15   11   12 1 
    16   12   13 1 
    17   12   14 1 
    18   14   15 1 
    19   15   16 2 
    20   15   18 1 
    21   16   17 1 
    22   19   20 1 
    23   19   27 1 
    24   19   28 1 
    25   20   21 1 
    26   21   22 1 
    27   22   23 1 
    28   23   24 1 
    29   24   25 1 
    30   25   26 1 
    31   29    2 1 
@<TRIPOS>SUBSTRUCTURE
1 MOL         1
@<TRIPOS>MOLECULE
query molecule
   29    31     1     0     0
SMALL
NO_CHARGE

@<TRIPOS>ATOM
      1 C1        -41.9928 -163.7600  308.3096 C.ar      1 MOL     0.0777
      2 O2        -42.9832 -162.8969  308.6578 O.3       1 MOL    -0.3605
      3 C3        -41.6007 -164.7542  309.1929 C.ar      1 MOL     0.0376
      4 C4        -40.5931 -165.6308  308.8394 C.ar      1 MOL    -0.0372
      5 C5        -39.9804 -165.5189  307.6077 C.ar      1 MOL     0.0379
      6 C6        -40.3710 -164.5256  306.7148 C.ar      1 MOL     0.0821
      7 O7        -39.7514 -164.4617  305.5076 O.3       1 MOL    -0.3395
      8 C8        -39.9035 -163.2808  304.7187 C.3       1 MOL     0.0730
      9 C9        -39.4214 -163.5360  303.2892 C.3       1 MOL     0.0428
     10 C10       -39.0864 -162.1490  305.3448 C.3       1 MOL     0.0428
     11 C11       -41.3850 -162.8995  304.7028 C.3       1 MOL     0.0329
     12 C13       -41.8171 -162.5514  306.1344 C.3       1 MOL     0.0348
     13 C15       -41.3768 -163.6427  307.0703 C.ar      1 MOL     0.0162
     14 C16       -43.3394 -162.4068  306.1456 C.3       1 MOL     0.0390
     15 C17       -43.7616 -161.4778  305.0418 C.2       1 MOL    -0.0767
     16 C18       -43.0119 -161.1564  304.0358 C.2       1 MOL    -0.0277
     17 C19       -41.6123 -161.6645  303.8295 C.3       1 MOL     0.0342
     18 C20       -45.1443 -160.8825  305.1103 C.3       1 MOL     0.0389
     19 C21       -40.1624 -166.7097  309.7995 C.3       1 MOL    -0.0102
     20 C22       -40.6721 -168.0652  309.3055 C.3       1 MOL     0.0110
     21 C23       -39.5514 -169.1012  309.4125 C.3       1 MOL     0.0009
     22 C24       -38.7811 -169.1574  308.0916 C.3       1 MOL     0.0002
     23 C25       -38.8756 -170.5676  307.5058 C.3       1 MOL     0.0009
     24 C26       -38.2355 -170.5866  306.1163 C.3       1 MOL     0.0115
     25 C27       -37.0005 -171.4895  306.1358 C.3       1 MOL     0.0805
     26 Br28      -35.4216 -170.4523  305.5913 Br        1 MOL    -0.0928
     27 C29       -38.6349 -166.7386  309.8823 C.3       1 MOL     0.0159
     28 C30       -40.7429 -166.4208  311.1852 C.3       1 MOL     0.0159
     29 H2        -42.6336 -162.0034  308.6879 H         1 MOL     0.2183
@<TRIPOS>BOND
     1    1   13 ar
     2    1    2 1 
     3    1    3 ar
     4    3    4 ar
     5    4    5 ar
     6    4   19 1 
     7    5    6 ar
     8    6   13 ar
     9    6    7 1 
    10    7    8 1 
    11    8    9 1 
    12    8   10 1 
    13    8   11 1 
    14   11   17 1 
    15   11   12 1 
    16   12   13 1 
    17   12   14 1 
    18   14   15 1 
    19   15   16 2 
    20   15   18 1 
    21   16   17 1 
    22   19   20 1 
    23   19   27 1 
    24   19   28 1 
    25   20   21 1 
    26   21   22 1 
    27   22   23 1 
    28   23   24 1 
    29   24   25 1 
    30   25   26 1 
    31   29    2 1 
@<TRIPOS>SUBSTRUCTURE
1 MOL         1
@<TRIPOS>MOLECULE
query molecule
   29    31     1     0     0
SMALL
NO_CHARGE

@<TRIPOS>ATOM
      1 C1        -39.2716 -164.8608  306.5267 C.ar      1 MOL     0.0777
      2 O2        -38.3167 -165.7937  306.2720 O.3       1 MOL    -0.3605
      3 C3        -39.3868 -163.7486  305.7069 C.ar      1 MOL     0.0376
      4 C4        -40.3567 -162.7996  305.9665 C.ar      1 MOL    -0.0372
      5 C5        -41.2116 -162.9605  307.0382 C.ar      1 MOL     0.0379
      6 C6        -41.1040 -164.0760  307.8632 C.ar      1 MOL     0.0821
      7 O7        -41.9759 -164.2015  308.8973 O.3       1 MOL    -0.3395
      8 C8        -41.6885 -165.1482  309.9275 C.3       1 MOL     0.0730
      9 C9        -42.9264 -165.3716  310.7985 C.3       1 MOL     0.0428
     10 C10       -40.5395 -164.6206  310.7890 C.3       1 MOL     0.0428
     11 C11       -41.2764 -166.4663  309.2694 C.3       1 MOL     0.0329
     12 C13       -39.9771 -166.2371  308.4840 C.3       1 MOL     0.0348
     13 C15       -40.1283 -165.0248  307.6075 C.ar      1 MOL     0.0162
     14 C16       -39.7075 -167.4857  307.6434 C.3       1 MOL     0.0390
     15 C17       -39.7904 -168.7051  308.5186 C.2       1 MOL    -0.0767
     16 C18       -40.3537 -168.7259  309.6846 C.2       1 MOL    -0.0277
     17 C19       -41.0027 -167.5336  310.3301 C.3       1 MOL     0.0342
     18 C20       -39.1791 -169.9840  308.0069 C.3       1 MOL     0.0389
     19 C21       -40.4812 -161.5878  305.0793 C.3       1 MOL    -0.0102
     20 C22       -41.5197 -161.8586  303.9888 C.3       1 MOL     0.0110
     21 C23       -42.8640 -162.1953  304.6370 C.3       1 MOL     0.0009
     22 C24       -43.9975 -161.5996  303.7995 C.3       1 MOL     0.0002
     23 C25       -44.9588 -160.8356  304.7122 C.3       1 MOL     0.0009
     24 C26       -44.7696 -159.3313  304.5073 C.3       1 MOL     0.0115
     25 C27       -43.3135 -158.9571  304.7912 C.3       1 MOL     0.0805
     26 Br28      -43.2523 -157.2383  305.7437 Br        1 MOL    -0.0928
     27 C29       -40.9227 -160.3858  305.9167 C.3       1 MOL     0.0159
     28 C30       -39.1278 -161.2886  304.4317 C.3       1 MOL     0.0159
     29 H2        -37.9052 -165.6080  305.4249 H         1 MOL     0.2183
@<TRIPOS>BOND
     1    1   13 ar
     2    1    2 1 
     3    1    3 ar
     4    3    4 ar
     5    4    5 ar
     6    4   19 1 
     7    5    6 ar
     8    6   13 ar
     9    6    7 1 
    10    7    8 1 
    11    8    9 1 
    12    8   10 1 
    13    8   11 1 
    14   11   17 1 
    15   11   12 1 
    16   12   13 1 
    17   12   14 1 
    18   14   15 1 
    19   15   16 2 
    20   15   18 1 
    21   16   17 1 
    22   19   20 1 
    23   19   27 1 
    24   19   28 1 
    25   20   21 1 
    26   21   22 1 
    27   22   23 1 
    28   23   24 1 
    29   24   25 1 
    30   25   26 1 
    31   29    2 1 
@<TRIPOS>SUBSTRUCTURE
1 MOL         1
@<TRIPOS>MOLECULE
query molecule
   29    31     1     0     0
SMALL
NO_CHARGE

@<TRIPOS>ATOM
      1 C1        -38.9305 -165.7485  306.6657 C.ar      1 MOL     0.0777
      2 O2        -37.7064 -165.8476  306.0838 O.3       1 MOL    -0.3605
      3 C3        -39.6503 -164.5679  306.5639 C.ar      1 MOL     0.0376
      4 C4        -40.8942 -164.4667  307.1564 C.ar      1 MOL    -0.0372
      5 C5        -41.4207 -165.5405  307.8455 C.ar      1 MOL     0.0379
      6 C6        -40.7054 -166.7297  307.9489 C.ar      1 MOL     0.0821
      7 O7        -41.2683 -167.7659  308.6234 O.3       1 MOL    -0.3395
      8 C8        -40.4407 -168.8630  309.0128 C.3       1 MOL     0.0730
      9 C9        -41.3059 -170.0472  309.4489 C.3       1 MOL     0.0428
     10 C10       -39.5403 -168.4274  310.1706 C.3       1 MOL     0.0428
     11 C11       -39.5803 -169.2667  307.8141 C.3       1 MOL     0.0329
     12 C13       -38.6513 -168.0965  307.4608 C.3       1 MOL     0.0348
     13 C15       -39.4560 -166.8303  307.3605 C.ar      1 MOL     0.0162
     14 C16       -37.9742 -168.4175  306.1279 C.3       1 MOL     0.0390
     15 C17       -37.3729 -169.7938  306.1912 C.2       1 MOL    -0.0767
     16 C18       -37.6916 -170.6862  307.0740 C.2       1 MOL    -0.0277
     17 C19       -38.7062 -170.4726  308.1623 C.3       1 MOL     0.0342
     18 C20       -36.3333 -170.1579  305.1627 C.3       1 MOL     0.0389
     19 C21       -41.6767 -163.1831  307.0506 C.3       1 MOL    -0.0102
     20 C22       -42.7272 -163.3157  305.9461 C.3       1 MOL     0.0110
     21 C23       -42.5159 -162.2134  304.9064 C.3       1 MOL     0.0009
     22 C24       -43.1317 -162.6445  303.5737 C.3       1 MOL     0.0002
     23 C25       -44.5956 -162.2026  303.5216 C.3       1 MOL     0.0009
     24 C26       -45.4940 -163.4311  303.3654 C.3       1 MOL     0.0115
     25 C27       -46.9611 -163.0009  303.4237 C.3       1 MOL     0.0805
     26 Br28      -48.1087 -164.5154  302.9195 Br        1 MOL    -0.0928
     27 C29       -42.3714 -162.8979  308.3836 C.3       1 MOL     0.0159
     28 C30       -40.7259 -162.0324  306.7146 C.3       1 MOL     0.0159
     29 H2        -37.6370 -165.2069  305.3723 H         1 MOL     0.2183
@<TRIPOS>BOND
     1    1   13 ar
     2    1    2 1 
     3    1    3 ar
     4    3    4 ar
     5    4    5 ar
     6    4   19 1 
     7    5    6 ar
     8    6   13 ar
     9    6    7 1 
    10    7    8 1 
    11    8    9 1 
    12    8   10 1 
    13    8   11 1 
    14   11   17 1 
    15   11   12 1 
    16   12   13 1 
    17   12   14 1 
    18   14   15 1 
    19   15   16 2 
    20   15   18 1 
    21   16   17 1 
    22   19   20 1 
    23   19   27 1 
    24   19   28 1 
    25   20   21 1 
    26   21   22 1 
    27   22   23 1 
    28   23   24 1 
    29   24   25 1 
    30   25   26 1 
    31   29    2 1 
@<TRIPOS>SUBSTRUCTURE
1 MOL         1
@<TRIPOS>MOLECULE
query molecule
   29    31     1     0     0
SMALL
NO_CHARGE

@<TRIPOS>ATOM
      1 C1        -39.2585 -165.1357  306.5473 C.ar      1 MOL     0.0777
      2 O2        -38.2953 -166.0693  306.3291 O.3       1 MOL    -0.3605
      3 C3        -39.3693 -164.0457  305.6975 C.ar      1 MOL     0.0376
      4 C4        -40.3477 -163.0960  305.9201 C.ar      1 MOL    -0.0372
      5 C5        -41.2153 -163.2341  306.9846 C.ar      1 MOL     0.0379
      6 C6        -41.1122 -164.3273  307.8396 C.ar      1 MOL     0.0821
      7 O7        -41.9967 -164.4312  308.8654 O.3       1 MOL    -0.3395
      8 C8        -41.7174 -165.3492  309.9234 C.3       1 MOL     0.0730
      9 C9        -42.9652 -165.5573  310.7840 C.3       1 MOL     0.0428
     10 C10       -40.5825 -164.7928  310.7855 C.3       1 MOL     0.0428
     11 C11       -41.2896 -166.6814  309.3049 C.3       1 MOL     0.0329
     12 C13       -39.9816 -166.4650  308.5305 C.3       1 MOL     0.0348
     13 C15       -40.1282 -165.2767  307.6210 C.ar      1 MOL     0.0162
     14 C16       -39.6944 -167.7333  307.7260 C.3       1 MOL     0.0390
     15 C17       -39.7818 -168.9302  308.6314 C.2       1 MOL    -0.0767
     16 C18       -40.3599 -168.9242  309.7903 C.2       1 MOL    -0.0277
     17 C19       -41.0237 -167.7194  310.3964 C.3       1 MOL     0.0342
     18 C20       -39.1569 -170.2184  308.1609 C.3       1 MOL     0.0389
     19 C21       -40.4674 -161.9083  305.0003 C.3       1 MOL    -0.0102
     20 C22       -41.4902 -162.2133  303.9040 C.3       1 MOL     0.0110
     21 C23       -42.8409 -162.5409  304.5436 C.3       1 MOL     0.0009
     22 C24       -43.9665 -161.9670  303.6805 C.3       1 MOL     0.0002
     23 C25       -44.9409 -161.1874  304.5657 C.3       1 MOL     0.0009
     24 C26       -44.7542 -159.6870  304.3312 C.3       1 MOL     0.0115
     25 C27       -43.3028 -159.3018  304.6240 C.3       1 MOL     0.0805
     26 Br28      -43.2583 -157.5631  305.5406 Br        1 MOL    -0.0928
     27 C29       -40.9262 -160.6877  305.8005 C.3       1 MOL     0.0159
     28 C30       -39.1074 -161.6181  304.3624 C.3       1 MOL     0.0159
     29 H2        -37.8739 -165.9031  305.4827 H         1 MOL     0.2183
@<TRIPOS>BOND
     1    1   13 ar
     2    1    2 1 
     3    1    3 ar
     4    3    4 ar
     5    4    5 ar
     6    4   19 1 
     7    5    6 ar
     8    6   13 ar
     9    6    7 1 
    10    7    8 1 
    11    8    9 1 
    12    8   10 1 
    13    8   11 1 
    14   11   17 1 
    15   11   12 1 
    16   12   13 1 
    17   12   14 1 
    18   14   15 1 
    19   15   16 2 
    20   15   18 1 
    21   16   17 1 
    22   19   20 1 
    23   19   27 1 
    24   19   28 1 
    25   20   21 1 
    26   21   22 1 
    27   22   23 1 
    28   23   24 1 
    29   24   25 1 
    30   25   26 1 
    31   29    2 1 
@<TRIPOS>SUBSTRUCTURE
1 MOL         1
@<TRIPOS>MOLECULE
query molecule
   29    31     1     0     0
SMALL
NO_CHARGE

@<TRIPOS>ATOM
      1 C1        -38.0102 -166.1722  306.1877 C.ar      1 MOL     0.0777
      2 O2        -36.7147 -166.4478  305.8831 O.3       1 MOL    -0.3605
      3 C3        -38.5509 -164.9395  305.8550 C.ar      1 MOL     0.0376
      4 C4        -39.8675 -164.6589  306.1657 C.ar      1 MOL    -0.0372
      5 C5        -40.6439 -165.6055  306.8031 C.ar      1 MOL     0.0379
      6 C6        -40.1089 -166.8460  307.1370 C.ar      1 MOL     0.0821
      7 O7        -40.9134 -167.7530  307.7498 O.3       1 MOL    -0.3395
      8 C8        -40.3155 -168.8870  308.3797 C.3       1 MOL     0.0730
      9 C9        -41.3837 -169.9324  308.7071 C.3       1 MOL     0.0428
     10 C10       -39.6200 -168.4389  309.6667 C.3       1 MOL     0.0428
     11 C11       -39.2863 -169.4850  307.4187 C.3       1 MOL     0.0329
     12 C13       -38.1742 -168.4522  307.1864 C.3       1 MOL     0.0348
     13 C15       -38.7877 -167.1262  306.8314 C.ar      1 MOL     0.0162
     14 C16       -37.2867 -168.9623  306.0504 C.3       1 MOL     0.0390
     15 C17       -36.8766 -170.3803  306.3344 C.2       1 MOL    -0.0767
     16 C18       -37.4683 -171.1503  307.1915 C.2       1 MOL    -0.0277
     17 C19       -38.6477 -170.7352  308.0258 C.3       1 MOL     0.0342
     18 C20       -35.7025 -170.9414  305.5743 C.3       1 MOL     0.0389
     19 C21       -40.4562 -163.3183  305.8088 C.3       1 MOL    -0.0102
     20 C22       -41.4515 -162.8941  306.8907 C.3       1 MOL     0.0110
     21 C23       -40.8052 -163.0518  308.2684 C.3       1 MOL     0.0009
     22 C24       -41.6148 -162.2690  309.3042 C.3       1 MOL     0.0002
     23 C25       -41.4257 -162.9024  310.6840 C.3       1 MOL     0.0009
     24 C26       -42.3664 -164.1004  310.8285 C.3       1 MOL     0.0115
     25 C27       -41.6136 -165.3852  310.4773 C.3       1 MOL     0.0805
     26 Br28      -40.8378 -166.1576  312.1103 Br        1 MOL    -0.0928
     27 C29       -39.3370 -162.2798  305.7101 C.3       1 MOL     0.0159
     28 C30       -41.1778 -163.4199  304.4636 C.3       1 MOL     0.0159
     29 H2        -36.4475 -165.9291  305.1208 H         1 MOL     0.2183
@<TRIPOS>BOND
     1    1   13 ar
     2    1    2 1 
     3    1    3 ar
     4    3    4 ar
     5    4    5 ar
     6    4   19 1 
     7    5    6 ar
     8    6   13 ar
     9    6    7 1 
    10    7    8 1 
    11    8    9 1 
    12    8   10 1 
    13    8   11 1 
    14   11   17 1 
    15   11   12 1 
    16   12   13 1 
    17   12   14 1 
    18   14   15 1 
    19   15   16 2 
    20   15   18 1 
    21   16   17 1 
    22   19   20 1 
    23   19   27 1 
    24   19   28 1 
    25   20   21 1 
    26   21   22 1 
    27   22   23 1 
    28   23   24 1 
    29   24   25 1 
    30   25   26 1 
    31   29    2 1 
@<TRIPOS>SUBSTRUCTURE
1 MOL         1
@<TRIPOS>MOLECULE
query molecule
   29    31     1     0     0
SMALL
NO_CHARGE

@<TRIPOS>ATOM
      1 C1        -38.3401 -166.0387  306.2642 C.ar      1 MOL     0.0777
      2 O2        -37.0592 -166.3286  305.9147 O.3       1 MOL    -0.3605
      3 C3        -38.9060 -164.8336  305.8771 C.ar      1 MOL     0.0376
      4 C4        -40.2077 -164.5383  306.2334 C.ar      1 MOL    -0.0372
      5 C5        -40.9444 -165.4431  306.9708 C.ar      1 MOL     0.0379
      6 C6        -40.3841 -166.6561  307.3600 C.ar      1 MOL     0.0821
      7 O7        -41.1503 -167.5232  308.0715 O.3       1 MOL    -0.3395
      8 C8        -40.5134 -168.6096  308.7454 C.3       1 MOL     0.0730
      9 C9        -41.5561 -169.6352  309.1950 C.3       1 MOL     0.0428
     10 C10       -39.7586 -168.0729  309.9632 C.3       1 MOL     0.0428
     11 C11       -39.5284 -169.2666  307.7766 C.3       1 MOL     0.0329
     12 C13       -38.4371 -168.2470  307.4204 C.3       1 MOL     0.0348
     13 C15       -39.0775 -166.9505  307.0084 C.ar      1 MOL     0.0162
     14 C16       -37.6029 -168.8285  306.2784 C.3       1 MOL     0.0390
     15 C17       -37.1684 -170.2225  306.6360 C.2       1 MOL    -0.0767
     16 C18       -37.7112 -170.9355  307.5712 C.2       1 MOL    -0.0277
     17 C19       -38.8511 -170.4703  308.4336 C.3       1 MOL     0.0342
     18 C20       -36.0291 -170.8284  305.8576 C.3       1 MOL     0.0389
     19 C21       -40.8236 -163.2273  305.8173 C.3       1 MOL    -0.0102
     20 C22       -42.2282 -163.4765  305.2642 C.3       1 MOL     0.0110
     21 C23       -43.1806 -162.3993  305.7870 C.3       1 MOL     0.0009
     22 C24       -43.8602 -161.7028  304.6062 C.3       1 MOL     0.0002
     23 C25       -45.2701 -162.2680  304.4234 C.3       1 MOL     0.0009
     24 C26       -45.2523 -163.3400  303.3319 C.3       1 MOL     0.0115
     25 C27       -46.6696 -163.8756  303.1197 C.3       1 MOL     0.0805
     26 Br28      -46.6692 -165.8307  303.3260 Br        1 MOL    -0.0928
     27 C29       -40.9102 -162.2972  307.0289 C.3       1 MOL     0.0159
     28 C30       -39.9577 -162.5774  304.7363 C.3       1 MOL     0.0159
     29 H2        -36.6724 -165.5756  305.4620 H         1 MOL     0.2183
@<TRIPOS>BOND
     1    1   13 ar
     2    1    2 1 
     3    1    3 ar
     4    3    4 ar
     5    4    5 ar
     6    4   19 1 
     7    5    6 ar
     8    6   13 ar
     9    6    7 1 
    10    7    8 1 
    11    8    9 1 
    12    8   10 1 
    13    8   11 1 
    14   11   17 1 
    15   11   12 1 
    16   12   13 1 
    17   12   14 1 
    18   14   15 1 
    19   15   16 2 
    20   15   18 1 
    21   16   17 1 
    22   19   20 1 
    23   19   27 1 
    24   19   28 1 
    25   20   21 1 
    26   21   22 1 
    27   22   23 1 
    28   23   24 1 
    29   24   25 1 
    30   25   26 1 
    31   29    2 1 
@<TRIPOS>SUBSTRUCTURE
1 MOL         1
@<TRIPOS>MOLECULE
query molecule
   29    31     1     0     0
SMALL
NO_CHARGE

@<TRIPOS>ATOM
      1 C1        -41.5217 -163.9910  308.6458 C.ar      1 MOL     0.0777
      2 O2        -42.1679 -163.7013  309.8057 O.3       1 MOL    -0.3605
      3 C3        -41.4010 -163.0219  307.6615 C.ar      1 MOL     0.0376
      4 C4        -40.7451 -163.3166  306.4819 C.ar      1 MOL    -0.0372
      5 C5        -40.2080 -164.5728  306.2852 C.ar      1 MOL     0.0379
      6 C6        -40.3223 -165.5494  307.2700 C.ar      1 MOL     0.0821
      7 O7        -39.7656 -166.7670  307.0404 O.3       1 MOL    -0.3395
      8 C8        -40.1388 -167.8623  307.8777 C.3       1 MOL     0.0730
      9 C9        -39.1733 -169.0322  307.6771 C.3       1 MOL     0.0428
     10 C10       -41.5618 -168.3013  307.5268 C.3       1 MOL     0.0428
     11 C11       -40.0875 -167.3952  309.3336 C.3       1 MOL     0.0329
     12 C13       -41.1356 -166.2908  309.5315 C.3       1 MOL     0.0348
     13 C15       -40.9847 -165.2569  308.4504 C.ar      1 MOL     0.0162
     14 C16       -40.9128 -165.6710  310.9115 C.3       1 MOL     0.0390
     15 C17       -40.8417 -166.7615  311.9438 C.2       1 MOL    -0.0767
     16 C18       -40.6324 -168.0097  311.6692 C.2       1 MOL    -0.0277
     17 C19       -40.4329 -168.5465  310.2794 C.3       1 MOL     0.0342
     18 C20       -41.0261 -166.3780  313.3895 C.3       1 MOL     0.0389
     19 C21       -40.6164 -162.2662  305.4090 C.3       1 MOL    -0.0102
     20 C22       -41.8543 -162.3006  304.5104 C.3       1 MOL     0.0110
     21 C23       -43.0852 -161.8923  305.3222 C.3       1 MOL     0.0009
     22 C24       -44.2157 -161.4965  304.3701 C.3       1 MOL     0.0002
     23 C25       -43.8101 -160.2449  303.5893 C.3       1 MOL     0.0009
     24 C26       -44.0794 -159.0028  304.4410 C.3       1 MOL     0.0115
     25 C27       -42.7958 -158.5931  305.1657 C.3       1 MOL     0.0805
     26 Br28      -42.9052 -156.6962  305.6708 Br        1 MOL    -0.0928
     27 C29       -40.4958 -160.8861  306.0584 C.3       1 MOL     0.0159
     28 C30       -39.3685 -162.5454  304.5690 C.3       1 MOL     0.0159
     29 H2        -43.0947 -163.9379  309.7238 H         1 MOL     0.2183
@<TRIPOS>BOND
     1    1   13 ar
     2    1    2 1 
     3    1    3 ar
     4    3    4 ar
     5    4    5 ar
     6    4   19 1 
     7    5    6 ar
     8    6   13 ar
     9    6    7 1 
    10    7    8 1 
    11    8    9 1 
    12    8   10 1 
    13    8   11 1 
    14   11   17 1 
    15   11   12 1 
    16   12   13 1 
    17   12   14 1 
    18   14   15 1 
    19   15   16 2 
    20   15   18 1 
    21   16   17 1 
    22   19   20 1 
    23   19   27 1 
    24   19   28 1 
    25   20   21 1 
    26   21   22 1 
    27   22   23 1 
    28   23   24 1 
    29   24   25 1 
    30   25   26 1 
    31   29    2 1 
@<TRIPOS>SUBSTRUCTURE
1 MOL         1
@<TRIPOS>MOLECULE
query molecule
   29    31     1     0     0
SMALL
NO_CHARGE

@<TRIPOS>ATOM
      1 C1        -38.7529 -165.6433  306.3568 C.ar      1 MOL     0.0777
      2 O2        -37.4736 -165.7741  305.9172 O.3       1 MOL    -0.3605
      3 C3        -39.4572 -164.4778  306.0962 C.ar      1 MOL     0.0376
      4 C4        -40.7573 -164.3443  306.5441 C.ar      1 MOL    -0.0372
      5 C5        -41.3548 -165.3710  307.2469 C.ar      1 MOL     0.0379
      6 C6        -40.6552 -166.5450  307.5092 C.ar      1 MOL     0.0821
      7 O7        -41.2873 -167.5355  308.1909 O.3       1 MOL    -0.3395
      8 C8        -40.5065 -168.5968  308.7424 C.3       1 MOL     0.0730
      9 C9        -41.4138 -169.7538  309.1658 C.3       1 MOL     0.0428
     10 C10       -39.7347 -168.0751  309.9561 C.3       1 MOL     0.0428
     11 C11       -39.5231 -169.0772  307.6735 C.3       1 MOL     0.0329
     12 C13       -38.5612 -167.9279  307.3401 C.3       1 MOL     0.0348
     13 C15       -39.3500 -166.6776  307.0659 C.ar      1 MOL     0.0162
     14 C16       -37.7457 -168.3364  306.1128 C.3       1 MOL     0.0390
     15 C17       -37.1552 -169.7007  306.3363 C.2       1 MOL    -0.0767
     16 C18       -37.5667 -170.5315  307.2406 C.2       1 MOL    -0.0277
     17 C19       -38.6917 -170.2495  308.1968 C.3       1 MOL     0.0342
     18 C20       -36.0118 -170.1284  305.4526 C.3       1 MOL     0.0389
     19 C21       -41.5233 -163.0767  306.2657 C.3       1 MOL    -0.0102
     20 C22       -40.7870 -162.2589  305.2026 C.3       1 MOL     0.0110
     21 C23       -40.0688 -161.0843  305.8699 C.3       1 MOL     0.0009
     22 C24       -40.8023 -159.7831  305.5383 C.3       1 MOL     0.0002
     23 C25       -39.8805 -158.5935  305.8140 C.3       1 MOL     0.0009
     24 C26       -40.6540 -157.5144  306.5743 C.3       1 MOL     0.0115
     25 C27       -40.1731 -156.1322  306.1282 C.3       1 MOL     0.0805
     26 Br28      -41.5447 -154.7908  306.5578 Br        1 MOL    -0.0928
     27 C29       -42.9238 -163.4280  305.7594 C.3       1 MOL     0.0159
     28 C30       -41.6370 -162.2564  307.5521 C.3       1 MOL     0.0159
     29 H2        -37.0123 -164.9386  306.0204 H         1 MOL     0.2183
@<TRIPOS>BOND
     1    1   13 ar
     2    1    2 1 
     3    1    3 ar
     4    3    4 ar
     5    4    5 ar
     6    4   19 1 
     7    5    6 ar
     8    6   13 ar
     9    6    7 1 
    10    7    8 1 
    11    8    9 1 
    12    8   10 1 
    13    8   11 1 
    14   11   17 1 
    15   11   12 1 
    16   12   13 1 
    17   12   14 1 
    18   14   15 1 
    19   15   16 2 
    20   15   18 1 
    21   16   17 1 
    22   19   20 1 
    23   19   27 1 
    24   19   28 1 
    25   20   21 1 
    26   21   22 1 
    27   22   23 1 
    28   23   24 1 
    29   24   25 1 
    30   25   26 1 
    31   29    2 1 
@<TRIPOS>SUBSTRUCTURE
1 MOL         1
@<TRIPOS>MOLECULE
query molecule
   29    31     1     0     0
SMALL
NO_CHARGE

@<TRIPOS>ATOM
      1 C1        -39.7959 -167.3755  309.5658 C.ar      1 MOL     0.0777
      2 O2        -39.8789 -166.9475  310.8530 O.3       1 MOL    -0.3605
      3 C3        -39.5583 -168.7148  309.2970 C.ar      1 MOL     0.0376
      4 C4        -39.4727 -169.1497  307.9885 C.ar      1 MOL    -0.0372
      5 C5        -39.6268 -168.2528  306.9508 C.ar      1 MOL     0.0379
      6 C6        -39.8690 -166.9077  307.2130 C.ar      1 MOL     0.0821
      7 O7        -40.0295 -166.0630  306.1614 O.3       1 MOL    -0.3395
      8 C8        -39.9584 -164.6554  306.3934 C.3       1 MOL     0.0730
      9 C9        -40.4880 -163.8931  305.1771 C.3       1 MOL     0.0428
     10 C10       -38.5033 -164.2619  306.6559 C.3       1 MOL     0.0428
     11 C11       -40.8111 -164.3256  307.6200 C.3       1 MOL     0.0329
     12 C13       -40.1995 -165.0220  308.8440 C.3       1 MOL     0.0348
     13 C15       -39.9491 -166.4696  308.5242 C.ar      1 MOL     0.0162
     14 C16       -41.1840 -164.8842  310.0059 C.3       1 MOL     0.0390
     15 C17       -41.5890 -163.4438  310.1500 C.2       1 MOL    -0.0767
     16 C18       -41.4271 -162.5476  309.2291 C.2       1 MOL    -0.0277
     17 C19       -40.8093 -162.8194  307.8860 C.3       1 MOL     0.0342
     18 C20       -42.2232 -163.0152  311.4482 C.3       1 MOL     0.0389
     19 C21       -39.2103 -170.6042  307.6940 C.3       1 MOL    -0.0102
     20 C22       -39.0379 -170.7961  306.1858 C.3       1 MOL     0.0110
     21 C23       -38.3088 -172.1145  305.9196 C.3       1 MOL     0.0009
     22 C24       -37.7732 -172.1208  304.4863 C.3       1 MOL     0.0002
     23 C25       -36.5770 -171.1724  304.3848 C.3       1 MOL     0.0009
     24 C26       -35.3649 -171.8048  305.0717 C.3       1 MOL     0.0115
     25 C27       -35.0355 -171.0239  306.3454 C.3       1 MOL     0.0805
     26 Br28      -33.0984 -170.6997  306.4329 Br        1 MOL    -0.0928
     27 C29       -37.9353 -171.0484  308.4136 C.3       1 MOL     0.0159
     28 C30       -40.3913 -171.4448  308.1833 C.3       1 MOL     0.0159
     29 H2        -40.3747 -167.5855  311.3714 H         1 MOL     0.2183
@<TRIPOS>BOND
     1    1   13 ar
     2    1    2 1 
     3    1    3 ar
     4    3    4 ar
     5    4    5 ar
     6    4   19 1 
     7    5    6 ar
     8    6   13 ar
     9    6    7 1 
    10    7    8 1 
    11    8    9 1 
    12    8   10 1 
    13    8   11 1 
    14   11   17 1 
    15   11   12 1 
    16   12   13 1 
    17   12   14 1 
    18   14   15 1 
    19   15   16 2 
    20   15   18 1 
    21   16   17 1 
    22   19   20 1 
    23   19   27 1 
    24   19   28 1 
    25   20   21 1 
    26   21   22 1 
    27   22   23 1 
    28   23   24 1 
    29   24   25 1 
    30   25   26 1 
    31   29    2 1 
@<TRIPOS>SUBSTRUCTURE
1 MOL         1
@<TRIPOS>MOLECULE
query molecule
   29    31     1     0     0
SMALL
NO_CHARGE

@<TRIPOS>ATOM
      1 C1        -39.7645 -167.3999  309.5187 C.ar      1 MOL     0.0777
      2 O2        -39.8767 -166.9868  310.8085 O.3       1 MOL    -0.3605
      3 C3        -39.5054 -168.7333  309.2403 C.ar      1 MOL     0.0376
      4 C4        -39.3902 -169.1530  307.9291 C.ar      1 MOL    -0.0372
      5 C5        -39.5361 -168.2469  306.8982 C.ar      1 MOL     0.0379
      6 C6        -39.7995 -166.9078  307.1699 C.ar      1 MOL     0.0821
      7 O7        -39.9508 -166.0538  306.1244 O.3       1 MOL    -0.3395
      8 C8        -39.9014 -164.6480  306.3725 C.3       1 MOL     0.0730
      9 C9        -40.4176 -163.8792  305.1546 C.3       1 MOL     0.0428
     10 C10       -38.4564 -164.2398  306.6664 C.3       1 MOL     0.0428
     11 C11       -40.7807 -164.3418  307.5863 C.3       1 MOL     0.0329
     12 C13       -40.1835 -165.0438  308.8143 C.3       1 MOL     0.0348
     13 C15       -39.9094 -166.4848  308.4839 C.ar      1 MOL     0.0162
     14 C16       -41.1910 -164.9305  309.9589 C.3       1 MOL     0.0390
     15 C17       -41.6164 -163.4967  310.1105 C.2       1 MOL    -0.0767
     16 C18       -41.4484 -162.5888  309.2023 C.2       1 MOL    -0.0277
     17 C19       -40.8024 -162.8386  307.8682 C.3       1 MOL     0.0342
     18 C20       -42.2797 -163.0898  311.4011 C.3       1 MOL     0.0389
     19 C21       -39.1046 -170.6010  307.6242 C.3       1 MOL    -0.0102
     20 C22       -38.7616 -170.7518  306.1408 C.3       1 MOL     0.0110
     21 C23       -38.0147 -172.0689  305.9214 C.3       1 MOL     0.0009
     22 C24       -37.5495 -172.1551  304.4663 C.3       1 MOL     0.0002
     23 C25       -36.3828 -171.1902  304.2459 C.3       1 MOL     0.0009
     24 C26       -35.2561 -171.5196  305.2271 C.3       1 MOL     0.0115
     25 C27       -35.1306 -170.3944  306.2562 C.3       1 MOL     0.0805
     26 Br28      -36.1390 -168.8244  305.6368 Br        1 MOL    -0.0928
     27 C29       -37.9231 -171.0772  308.4718 C.3       1 MOL     0.0159
     28 C30       -40.3389 -171.4440  307.9505 C.3       1 MOL     0.0159
     29 H2        -39.0197 -166.6940  311.1268 H         1 MOL     0.2183
@<TRIPOS>BOND
     1    1   13 ar
     2    1    2 1 
     3    1    3 ar
     4    3    4 ar
     5    4    5 ar
     6    4   19 1 
     7    5    6 ar
     8    6   13 ar
     9    6    7 1 
    10    7    8 1 
    11    8    9 1 
    12    8   10 1 
    13    8   11 1 
    14   11   17 1 
    15   11   12 1 
    16   12   13 1 
    17   12   14 1 
    18   14   15 1 
    19   15   16 2 
    20   15   18 1 
    21   16   17 1 
    22   19   20 1 
    23   19   27 1 
    24   19   28 1 
    25   20   21 1 
    26   21   22 1 
    27   22   23 1 
    28   23   24 1 
    29   24   25 1 
    30   25   26 1 
    31   29    2 1 
@<TRIPOS>SUBSTRUCTURE
1 MOL         1
@<TRIPOS>MOLECULE
query molecule
   29    31     1     0     0
SMALL
NO_CHARGE

@<TRIPOS>ATOM
      1 C1        -38.0586 -166.1940  306.2937 C.ar      1 MOL     0.0777
      2 O2        -36.8361 -166.5765  305.8397 O.3       1 MOL    -0.3605
      3 C3        -38.5395 -164.9273  305.9995 C.ar      1 MOL     0.0376
      4 C4        -39.7817 -164.5380  306.4621 C.ar      1 MOL    -0.0372
      5 C5        -40.5439 -165.4100  307.2130 C.ar      1 MOL     0.0379
      6 C6        -40.0690 -166.6841  307.5093 C.ar      1 MOL     0.0821
      7 O7        -40.8589 -167.5148  308.2383 O.3       1 MOL    -0.3395
      8 C8        -40.2769 -168.6833  308.8179 C.3       1 MOL     0.0730
      9 C9        -41.3738 -169.6352  309.2995 C.3       1 MOL     0.0428
     10 C10       -39.3946 -168.2729  309.9986 C.3       1 MOL     0.0428
     11 C11       -39.4242 -169.3758  307.7532 C.3       1 MOL     0.0329
     12 C13       -38.2731 -168.4385  307.3610 C.3       1 MOL     0.0348
     13 C15       -38.8216 -167.0733  307.0512 C.ar      1 MOL     0.0162
     14 C16       -37.5754 -169.0346  306.1377 C.3       1 MOL     0.0390
     15 C17       -37.2441 -170.4765  306.4043 C.2       1 MOL    -0.0767
     16 C18       -37.7826 -171.1839  307.3461 C.2       1 MOL    -0.0277
     17 C19       -38.8138 -170.6637  308.3082 C.3       1 MOL     0.0342
     18 C20       -36.2203 -171.1406  305.5201 C.3       1 MOL     0.0389
     19 C21       -40.3048 -163.1602  306.1471 C.3       1 MOL    -0.0102
     20 C22       -41.2909 -163.2435  304.9801 C.3       1 MOL     0.0110
     21 C23       -42.6868 -163.5703  305.5143 C.3       1 MOL     0.0009
     22 C24       -43.6840 -162.5263  305.0077 C.3       1 MOL     0.0002
     23 C25       -43.9138 -162.7259  303.5083 C.3       1 MOL     0.0009
     24 C26       -44.8784 -161.6559  302.9932 C.3       1 MOL     0.0115
     25 C27       -44.2388 -160.2748  303.1493 C.3       1 MOL     0.0805
     26 Br28      -45.5048 -159.0633  304.0407 Br        1 MOL    -0.0928
     27 C29       -41.0163 -162.5914  307.3763 C.3       1 MOL     0.0159
     28 C30       -39.1384 -162.2469  305.7648 C.3       1 MOL     0.0159
     29 H2        -36.5694 -166.0043  305.1165 H         1 MOL     0.2183
@<TRIPOS>BOND
     1    1   13 ar
     2    1    2 1 
     3    1    3 ar
     4    3    4 ar
     5    4    5 ar
     6    4   19 1 
     7    5    6 ar
     8    6   13 ar
     9    6    7 1 
    10    7    8 1 
    11    8    9 1 
    12    8   10 1 
    13    8   11 1 
    14   11   17 1 
    15   11   12 1 
    16   12   13 1 
    17   12   14 1 
    18   14   15 1 
    19   15   16 2 
    20   15   18 1 
    21   16   17 1 
    22   19   20 1 
    23   19   27 1 
    24   19   28 1 
    25   20   21 1 
    26   21   22 1 
    27   22   23 1 
    28   23   24 1 
    29   24   25 1 
    30   25   26 1 
    31   29    2 1 
@<TRIPOS>SUBSTRUCTURE
1 MOL         1
@<TRIPOS>MOLECULE
query molecule
   29    31     1     0     0
SMALL
NO_CHARGE

@<TRIPOS>ATOM
      1 C1        -39.3343 -165.6272  306.8579 C.ar      1 MOL     0.0777
      2 O2        -38.5902 -166.6967  306.4716 O.3       1 MOL    -0.3605
      3 C3        -39.4524 -164.5288  306.0199 C.ar      1 MOL     0.0376
      4 C4        -40.2078 -163.4410  306.4131 C.ar      1 MOL    -0.0372
      5 C5        -40.8466 -163.4493  307.6366 C.ar      1 MOL     0.0379
      6 C6        -40.7354 -164.5497  308.4814 C.ar      1 MOL     0.0821
      7 O7        -41.3933 -164.5214  309.6695 O.3       1 MOL    -0.3395
      8 C8        -41.0432 -165.4768  310.6719 C.3       1 MOL     0.0730
      9 C9        -42.1022 -165.4947  311.7760 C.3       1 MOL     0.0428
     10 C10       -39.6833 -165.1060  311.2668 C.3       1 MOL     0.0428
     11 C11       -40.9598 -166.8558  310.0149 C.3       1 MOL     0.0329
     12 C13       -39.8235 -166.8394  308.9825 C.3       1 MOL     0.0348
     13 C15       -39.9736 -165.6381  308.0908 C.ar      1 MOL     0.0162
     14 C16       -39.9049 -168.1327  308.1708 C.3       1 MOL     0.0390
     15 C17       -39.9831 -169.3064  309.1068 C.2       1 MOL    -0.0767
     16 C18       -40.3006 -169.2173  310.3592 C.2       1 MOL    -0.0277
     17 C19       -40.6339 -167.9278  311.0560 C.3       1 MOL     0.0342
     18 C20       -39.6720 -170.6730  308.5529 C.3       1 MOL     0.0389
     19 C21       -40.3342 -162.2444  305.5058 C.3       1 MOL    -0.0102
     20 C22       -41.5181 -162.4460  304.5577 C.3       1 MOL     0.0110
     21 C23       -42.7481 -162.8727  305.3613 C.3       1 MOL     0.0009
     22 C24       -44.0043 -162.2691  304.7299 C.3       1 MOL     0.0002
     23 C25       -44.4025 -163.0900  303.5017 C.3       1 MOL     0.0009
     24 C26       -44.6018 -162.1558  302.3066 C.3       1 MOL     0.0115
     25 C27       -43.3400 -161.3155  302.1001 C.3       1 MOL     0.0805
     26 Br28      -43.2586 -160.7030  300.2338 Br        1 MOL    -0.0928
     27 C29       -40.5635 -160.9878  306.3479 C.3       1 MOL     0.0159
     28 C30       -39.0494 -162.0845  304.6905 C.3       1 MOL     0.0159
     29 H2        -37.7738 -166.3908  306.0697 H         1 MOL     0.2183
@<TRIPOS>BOND
     1    1   13 ar
     2    1    2 1 
     3    1    3 ar
     4    3    4 ar
     5    4    5 ar
     6    4   19 1 
     7    5    6 ar
     8    6   13 ar
     9    6    7 1 
    10    7    8 1 
    11    8    9 1 
    12    8   10 1 
    13    8   11 1 
    14   11   17 1 
    15   11   12 1 
    16   12   13 1 
    17   12   14 1 
    18   14   15 1 
    19   15   16 2 
    20   15   18 1 
    21   16   17 1 
    22   19   20 1 
    23   19   27 1 
    24   19   28 1 
    25   20   21 1 
    26   21   22 1 
    27   22   23 1 
    28   23   24 1 
    29   24   25 1 
    30   25   26 1 
    31   29    2 1 
@<TRIPOS>SUBSTRUCTURE
1 MOL         1
@<TRIPOS>MOLECULE
query molecule
   29    31     1     0     0
SMALL
NO_CHARGE

@<TRIPOS>ATOM
      1 C1        -41.5418 -164.0802  308.9495 C.ar      1 MOL     0.0777
      2 O2        -42.1556 -163.7952  310.1280 O.3       1 MOL    -0.3605
      3 C3        -41.4259 -163.0997  307.9760 C.ar      1 MOL     0.0376
      4 C4        -40.8030 -163.3898  306.7775 C.ar      1 MOL    -0.0372
      5 C5        -40.2939 -164.6526  306.5512 C.ar      1 MOL     0.0379
      6 C6        -40.4035 -165.6407  307.5250 C.ar      1 MOL     0.0821
      7 O7        -39.8748 -166.8649  307.2659 O.3       1 MOL    -0.3395
      8 C8        -40.2488 -167.9649  308.0967 C.3       1 MOL     0.0730
      9 C9        -39.3100 -169.1492  307.8577 C.3       1 MOL     0.0428
     10 C10       -41.6874 -168.3730  307.7731 C.3       1 MOL     0.0428
     11 C11       -40.1553 -167.5193  309.5572 C.3       1 MOL     0.0329
     12 C13       -41.1780 -166.3990  309.7945 C.3       1 MOL     0.0348
     13 C15       -41.0330 -165.3528  308.7244 C.ar      1 MOL     0.0162
     14 C16       -40.9120 -165.8027  311.1773 C.3       1 MOL     0.0390
     15 C17       -40.8373 -166.9087  312.1927 C.2       1 MOL    -0.0767
     16 C18       -40.6575 -168.1566  311.8963 C.2       1 MOL    -0.0277
     17 C19       -40.5001 -168.6773  310.4950 C.3       1 MOL     0.0342
     18 C20       -40.9811 -166.5423  313.6474 C.3       1 MOL     0.0389
     19 C21       -40.6796 -162.3268  305.7163 C.3       1 MOL    -0.0102
     20 C22       -41.7869 -162.5129  304.6770 C.3       1 MOL     0.0110
     21 C23       -43.1004 -162.8489  305.3859 C.3       1 MOL     0.0009
     22 C24       -44.2654 -162.2001  304.6356 C.3       1 MOL     0.0002
     23 C25       -44.6354 -163.0606  303.4258 C.3       1 MOL     0.0009
     24 C26       -44.7269 -162.1769  302.1802 C.3       1 MOL     0.0115
     25 C27       -43.4625 -161.3230  302.0666 C.3       1 MOL     0.0805
     26 Br28      -43.1955 -160.7936  300.1921 Br        1 MOL    -0.0928
     27 C29       -40.8116 -160.9454  306.3605 C.3       1 MOL     0.0159
     28 C30       -39.3151 -162.4432  305.0341 C.3       1 MOL     0.0159
     29 H2        -42.8710 -163.1737  309.9746 H         1 MOL     0.2183
@<TRIPOS>BOND
     1    1   13 ar
     2    1    2 1 
     3    1    3 ar
     4    3    4 ar
     5    4    5 ar
     6    4   19 1 
     7    5    6 ar
     8    6   13 ar
     9    6    7 1 
    10    7    8 1 
    11    8    9 1 
    12    8   10 1 
    13    8   11 1 
    14   11   17 1 
    15   11   12 1 
    16   12   13 1 
    17   12   14 1 
    18   14   15 1 
    19   15   16 2 
    20   15   18 1 
    21   16   17 1 
    22   19   20 1 
    23   19   27 1 
    24   19   28 1 
    25   20   21 1 
    26   21   22 1 
    27   22   23 1 
    28   23   24 1 
    29   24   25 1 
    30   25   26 1 
    31   29    2 1 
@<TRIPOS>SUBSTRUCTURE
1 MOL         1
@<TRIPOS>MOLECULE
query molecule
   29    31     1     0     0
SMALL
NO_CHARGE

@<TRIPOS>ATOM
      1 C1        -39.2008 -165.7534  307.1081 C.ar      1 MOL     0.0777
      2 O2        -38.0088 -165.7790  306.4559 O.3       1 MOL    -0.3605
      3 C3        -39.9413 -164.5819  307.1484 C.ar      1 MOL     0.0376
      4 C4        -41.1525 -164.5555  307.8124 C.ar      1 MOL    -0.0372
      5 C5        -41.6259 -165.6945  308.4317 C.ar      1 MOL     0.0379
      6 C6        -40.8898 -166.8748  308.3925 C.ar      1 MOL     0.0821
      7 O7        -41.4009 -167.9758  309.0024 O.3       1 MOL    -0.3395
      8 C8        -40.5384 -169.0871  309.2499 C.3       1 MOL     0.0730
      9 C9        -41.3622 -170.3205  309.6256 C.3       1 MOL     0.0428
     10 C10       -39.5825 -168.7371  310.3921 C.3       1 MOL     0.0428
     11 C11       -39.7388 -169.3694  307.9766 C.3       1 MOL     0.0329
     12 C13       -38.8466 -168.1559  307.6786 C.3       1 MOL     0.0348
     13 C15       -39.6728 -166.9009  307.7323 C.ar      1 MOL     0.0162
     14 C16       -38.2384 -168.3475  306.2887 C.3       1 MOL     0.0390
     15 C17       -37.6157 -169.7128  306.1993 C.2       1 MOL    -0.0767
     16 C18       -37.8737 -170.6842  307.0161 C.2       1 MOL    -0.0277
     17 C19       -38.8306 -170.5845  308.1711 C.3       1 MOL     0.0342
     18 C20       -36.6286 -169.9671  305.0894 C.3       1 MOL     0.0389
     19 C21       -41.9571 -163.2821  307.8610 C.3       1 MOL    -0.0102
     20 C22       -42.8832 -163.2173  306.6448 C.3       1 MOL     0.0110
     21 C23       -42.2232 -162.3828  305.5452 C.3       1 MOL     0.0009
     22 C24       -42.1940 -163.1862  304.2434 C.3       1 MOL     0.0002
     23 C25       -42.3355 -162.2348  303.0537 C.3       1 MOL     0.0009
     24 C26       -43.7029 -161.5506  303.1076 C.3       1 MOL     0.0115
     25 C27       -43.6709 -160.4277  304.1463 C.3       1 MOL     0.0805
     26 Br28      -45.3121 -159.3550  304.0027 Br        1 MOL    -0.0928
     27 C29       -42.7942 -163.2564  309.1414 C.3       1 MOL     0.0159
     28 C30       -41.0108 -162.0800  307.8461 C.3       1 MOL     0.0159
     29 H2        -38.0437 -165.1869  305.7011 H         1 MOL     0.2183
@<TRIPOS>BOND
     1    1   13 ar
     2    1    2 1 
     3    1    3 ar
     4    3    4 ar
     5    4    5 ar
     6    4   19 1 
     7    5    6 ar
     8    6   13 ar
     9    6    7 1 
    10    7    8 1 
    11    8    9 1 
    12    8   10 1 
    13    8   11 1 
    14   11   17 1 
    15   11   12 1 
    16   12   13 1 
    17   12   14 1 
    18   14   15 1 
    19   15   16 2 
    20   15   18 1 
    21   16   17 1 
    22   19   20 1 
    23   19   27 1 
    24   19   28 1 
    25   20   21 1 
    26   21   22 1 
    27   22   23 1 
    28   23   24 1 
    29   24   25 1 
    30   25   26 1 
    31   29    2 1 
@<TRIPOS>SUBSTRUCTURE
1 MOL         1
@<TRIPOS>MOLECULE
query molecule
   29    31     1     0     0
SMALL
NO_CHARGE

@<TRIPOS>ATOM
      1 C1        -39.2548 -166.4955  310.5127 C.ar      1 MOL     0.0777
      2 O2        -38.3363 -166.6237  311.5061 O.3       1 MOL    -0.3605
      3 C3        -38.8512 -166.5504  309.1873 C.ar      1 MOL     0.0376
      4 C4        -39.7847 -166.4189  308.1774 C.ar      1 MOL    -0.0372
      5 C5        -41.1172 -166.2367  308.4876 C.ar      1 MOL     0.0379
      6 C6        -41.5301 -166.1840  309.8155 C.ar      1 MOL     0.0821
      7 O7        -42.8532 -166.0185  310.0749 O.3       1 MOL    -0.3395
      8 C8        -43.2535 -165.6454  311.3942 C.3       1 MOL     0.0730
      9 C9        -44.7623 -165.8364  311.5612 C.3       1 MOL     0.0428
     10 C10       -42.8890 -164.1790  311.6345 C.3       1 MOL     0.0428
     11 C11       -42.5078 -166.5324  312.3930 C.3       1 MOL     0.0329
     12 C13       -41.0038 -166.2475  312.2741 C.3       1 MOL     0.0348
     13 C15       -40.5945 -166.3097  310.8286 C.ar      1 MOL     0.0162
     14 C16       -40.2581 -167.2995  313.0961 C.3       1 MOL     0.0390
     15 C17       -40.8504 -167.3679  314.4760 C.2       1 MOL    -0.0767
     16 C18       -42.0137 -166.8943  314.7919 C.2       1 MOL    -0.0277
     17 C19       -42.9364 -166.2068  313.8246 C.3       1 MOL     0.0342
     18 C20       -40.0392 -168.0290  315.5604 C.3       1 MOL     0.0389
     19 C21       -39.3478 -166.4741  306.7361 C.3       1 MOL    -0.0102
     20 C22       -40.3810 -165.7601  305.8623 C.3       1 MOL     0.0110
     21 C23       -40.2070 -164.2463  306.0005 C.3       1 MOL     0.0009
     22 C24       -41.1789 -163.5331  305.0583 C.3       1 MOL     0.0002
     23 C25       -42.5680 -163.4872  305.6979 C.3       1 MOL     0.0009
     24 C26       -43.1364 -162.0715  305.5818 C.3       1 MOL     0.0115
     25 C27       -43.9795 -161.9630  304.3096 C.3       1 MOL     0.0805
     26 Br28      -44.4299 -160.0778  303.9806 Br        1 MOL    -0.0928
     27 C29       -37.9904 -165.7839  306.5879 C.3       1 MOL     0.0159
     28 C30       -39.2284 -167.9342  306.2949 C.3       1 MOL     0.0159
     29 H2        -37.5673 -167.0918  311.1730 H         1 MOL     0.2183
@<TRIPOS>BOND
     1    1   13 ar
     2    1    2 1 
     3    1    3 ar
     4    3    4 ar
     5    4    5 ar
     6    4   19 1 
     7    5    6 ar
     8    6   13 ar
     9    6    7 1 
    10    7    8 1 
    11    8    9 1 
    12    8   10 1 
    13    8   11 1 
    14   11   17 1 
    15   11   12 1 
    16   12   13 1 
    17   12   14 1 
    18   14   15 1 
    19   15   16 2 
    20   15   18 1 
    21   16   17 1 
    22   19   20 1 
    23   19   27 1 
    24   19   28 1 
    25   20   21 1 
    26   21   22 1 
    27   22   23 1 
    28   23   24 1 
    29   24   25 1 
    30   25   26 1 
    31   29    2 1 
@<TRIPOS>SUBSTRUCTURE
1 MOL         1
@<TRIPOS>MOLECULE
query molecule
   29    31     1     0     0
SMALL
NO_CHARGE

@<TRIPOS>ATOM
      1 C1        -39.2553 -166.4955  310.5128 C.ar      1 MOL     0.0777
      2 O2        -38.3370 -166.6236  311.5063 O.3       1 MOL    -0.3605
      3 C3        -38.8516 -166.5504  309.1875 C.ar      1 MOL     0.0376
      4 C4        -39.7850 -166.4189  308.1775 C.ar      1 MOL    -0.0372
      5 C5        -41.1175 -166.2366  308.4875 C.ar      1 MOL     0.0379
      6 C6        -41.5305 -166.1839  309.8154 C.ar      1 MOL     0.0821
      7 O7        -42.8537 -166.0184  310.0746 O.3       1 MOL    -0.3395
      8 C8        -43.2541 -165.6453  311.3939 C.3       1 MOL     0.0730
      9 C9        -44.7630 -165.8363  311.5607 C.3       1 MOL     0.0428
     10 C10       -42.8897 -164.1789  311.6342 C.3       1 MOL     0.0428
     11 C11       -42.5085 -166.5323  312.3927 C.3       1 MOL     0.0329
     12 C13       -41.0045 -166.2475  312.2740 C.3       1 MOL     0.0348
     13 C15       -40.5950 -166.3096  310.8286 C.ar      1 MOL     0.0162
     14 C16       -40.2589 -167.2994  313.0961 C.3       1 MOL     0.0390
     15 C17       -40.8514 -167.3678  314.4760 C.2       1 MOL    -0.0767
     16 C18       -42.0147 -166.8942  314.7917 C.2       1 MOL    -0.0277
     17 C19       -42.9373 -166.2067  313.8243 C.3       1 MOL     0.0342
     18 C20       -40.0403 -168.0289  315.5605 C.3       1 MOL     0.0389
     19 C21       -39.3479 -166.4741  306.7363 C.3       1 MOL    -0.0102
     20 C22       -40.3810 -165.7601  305.8623 C.3       1 MOL     0.0110
     21 C23       -40.2070 -164.2463  306.0005 C.3       1 MOL     0.0009
     22 C24       -41.1789 -163.5331  305.0582 C.3       1 MOL     0.0002
     23 C25       -40.3938 -162.6359  304.0994 C.3       1 MOL     0.0009
     24 C26       -40.6024 -161.1703  304.4862 C.3       1 MOL     0.0115
     25 C27       -39.4227 -160.6942  305.3362 C.3       1 MOL     0.0805
     26 Br28      -39.8404 -158.9362  306.1108 Br        1 MOL    -0.0928
     27 C29       -37.9905 -165.7840  306.5882 C.3       1 MOL     0.0159
     28 C30       -39.2285 -167.9342  306.2950 C.3       1 MOL     0.0159
     29 H2        -37.5679 -167.0918  311.1733 H         1 MOL     0.2183
@<TRIPOS>BOND
     1    1   13 ar
     2    1    2 1 
     3    1    3 ar
     4    3    4 ar
     5    4    5 ar
     6    4   19 1 
     7    5    6 ar
     8    6   13 ar
     9    6    7 1 
    10    7    8 1 
    11    8    9 1 
    12    8   10 1 
    13    8   11 1 
    14   11   17 1 
    15   11   12 1 
    16   12   13 1 
    17   12   14 1 
    18   14   15 1 
    19   15   16 2 
    20   15   18 1 
    21   16   17 1 
    22   19   20 1 
    23   19   27 1 
    24   19   28 1 
    25   20   21 1 
    26   21   22 1 
    27   22   23 1 
    28   23   24 1 
    29   24   25 1 
    30   25   26 1 
    31   29    2 1 
@<TRIPOS>SUBSTRUCTURE
1 MOL         1
@<TRIPOS>MOLECULE
query molecule
   29    31     1     0     0
SMALL
NO_CHARGE

@<TRIPOS>ATOM
      1 C1        -37.8780 -166.2471  305.9604 C.ar      1 MOL     0.0777
      2 O2        -36.6055 -166.6237  305.6675 O.3       1 MOL    -0.3605
      3 C3        -38.3487 -165.0140  305.5357 C.ar      1 MOL     0.0376
      4 C4        -39.6420 -164.6308  305.8345 C.ar      1 MOL    -0.0372
      5 C5        -40.4648 -165.4755  306.5516 C.ar      1 MOL     0.0379
      6 C6        -40.0003 -166.7160  306.9782 C.ar      1 MOL     0.0821
      7 O7        -40.8491 -167.5217  307.6680 O.3       1 MOL    -0.3395
      8 C8        -40.3115 -168.6367  308.3807 C.3       1 MOL     0.0730
      9 C9        -41.4356 -169.5865  308.7992 C.3       1 MOL     0.0428
     10 C10       -39.5734 -168.1316  309.6220 C.3       1 MOL     0.0428
     11 C11       -39.3327 -169.3696  307.4613 C.3       1 MOL     0.0329
     12 C13       -38.1643 -168.4274  307.1382 C.3       1 MOL     0.0348
     13 C15       -38.7023 -167.0988  306.6845 C.ar      1 MOL     0.0162
     14 C16       -37.3240 -169.0780  306.0386 C.3       1 MOL     0.0390
     15 C17       -36.9954 -170.4915  306.4307 C.2       1 MOL    -0.0767
     16 C18       -37.6204 -171.1544  307.3512 C.2       1 MOL    -0.0277
     17 C19       -38.7617 -170.6045  308.1602 C.3       1 MOL     0.0342
     18 C20       -35.8671 -171.1806  305.7074 C.3       1 MOL     0.0389
     19 C21       -40.1545 -163.2892  305.3774 C.3       1 MOL    -0.0102
     20 C22       -41.3801 -162.9018  306.2073 C.3       1 MOL     0.0110
     21 C23       -41.3057 -161.4159  306.5639 C.3       1 MOL     0.0009
     22 C24       -41.8612 -160.5849  305.4054 C.3       1 MOL     0.0002
     23 C25       -40.8896 -159.4485  305.0810 C.3       1 MOL     0.0009
     24 C26       -41.3255 -158.1794  305.8159 C.3       1 MOL     0.0115
     25 C27       -40.2359 -157.7638  306.8064 C.3       1 MOL     0.0805
     26 Br28      -40.4724 -155.8717  307.2850 Br        1 MOL    -0.0928
     27 C29       -39.0604 -162.2357  305.5614 C.3       1 MOL     0.0159
     28 C30       -40.5433 -163.3681  303.8998 C.3       1 MOL     0.0159
     29 H2        -36.3411 -166.2355  304.8303 H         1 MOL     0.2183
@<TRIPOS>BOND
     1    1   13 ar
     2    1    2 1 
     3    1    3 ar
     4    3    4 ar
     5    4    5 ar
     6    4   19 1 
     7    5    6 ar
     8    6   13 ar
     9    6    7 1 
    10    7    8 1 
    11    8    9 1 
    12    8   10 1 
    13    8   11 1 
    14   11   17 1 
    15   11   12 1 
    16   12   13 1 
    17   12   14 1 
    18   14   15 1 
    19   15   16 2 
    20   15   18 1 
    21   16   17 1 
    22   19   20 1 
    23   19   27 1 
    24   19   28 1 
    25   20   21 1 
    26   21   22 1 
    27   22   23 1 
    28   23   24 1 
    29   24   25 1 
    30   25   26 1 
    31   29    2 1 
@<TRIPOS>SUBSTRUCTURE
1 MOL         1
@<TRIPOS>MOLECULE
query molecule
   29    31     1     0     0
SMALL
NO_CHARGE

@<TRIPOS>ATOM
      1 C1        -41.9875 -158.6647  305.5066 C.ar      1 MOL     0.0777
      2 O2        -43.2133 -158.1276  305.2701 O.3       1 MOL    -0.3605
      3 C3        -41.7601 -160.0078  305.2481 C.ar      1 MOL     0.0376
      4 C4        -40.5143 -160.5540  305.4897 C.ar      1 MOL    -0.0372
      5 C5        -39.4971 -159.7630  305.9844 C.ar      1 MOL     0.0379
      6 C6        -39.7172 -158.4134  306.2430 C.ar      1 MOL     0.0821
      7 O7        -38.6835 -157.6689  306.7148 O.3       1 MOL    -0.3395
      8 C8        -38.9618 -156.3876  307.2814 C.3       1 MOL     0.0730
      9 C9        -37.6668 -155.5882  307.4389 C.3       1 MOL     0.0428
     10 C10       -39.6223 -156.5752  308.6487 C.3       1 MOL     0.0428
     11 C11       -39.9163 -155.6438  306.3454 C.3       1 MOL     0.0329
     12 C13       -41.2429 -156.4144  306.2843 C.3       1 MOL     0.0348
     13 C15       -40.9671 -157.8662  306.0068 C.ar      1 MOL     0.0162
     14 C16       -42.0942 -155.8004  305.1723 C.3       1 MOL     0.0390
     15 C17       -42.1585 -154.3099  305.3568 C.2       1 MOL    -0.0767
     16 C18       -41.3401 -153.6334  306.0984 C.2       1 MOL    -0.0277
     17 C19       -40.2108 -154.2421  306.8818 C.3       1 MOL     0.0342
     18 C20       -43.2442 -153.5553  304.6337 C.3       1 MOL     0.0389
     19 C21       -40.2660 -162.0145  305.2134 C.3       1 MOL    -0.0102
     20 C22       -41.2092 -162.4919  304.1073 C.3       1 MOL     0.0110
     21 C23       -42.5608 -162.8689  304.7172 C.3       1 MOL     0.0009
     22 C24       -43.6828 -162.4714  303.7559 C.3       1 MOL     0.0002
     23 C25       -45.0212 -162.9784  304.2967 C.3       1 MOL     0.0009
     24 C26       -45.9281 -163.3697  303.1282 C.3       1 MOL     0.0115
     25 C27       -47.3778 -163.4464  303.6112 C.3       1 MOL     0.0805
     26 Br28      -48.2848 -164.9494  302.7262 Br        1 MOL    -0.0928
     27 C29       -38.8158 -162.2095  304.7663 C.3       1 MOL     0.0159
     28 C30       -40.5207 -162.8248  306.4858 C.3       1 MOL     0.0159
     29 H2        -43.6860 -158.6742  304.6382 H         1 MOL     0.2183
@<TRIPOS>BOND
     1    1   13 ar
     2    1    2 1 
     3    1    3 ar
     4    3    4 ar
     5    4    5 ar
     6    4   19 1 
     7    5    6 ar
     8    6   13 ar
     9    6    7 1 
    10    7    8 1 
    11    8    9 1 
    12    8   10 1 
    13    8   11 1 
    14   11   17 1 
    15   11   12 1 
    16   12   13 1 
    17   12   14 1 
    18   14   15 1 
    19   15   16 2 
    20   15   18 1 
    21   16   17 1 
    22   19   20 1 
    23   19   27 1 
    24   19   28 1 
    25   20   21 1 
    26   21   22 1 
    27   22   23 1 
    28   23   24 1 
    29   24   25 1 
    30   25   26 1 
    31   29    2 1 
@<TRIPOS>SUBSTRUCTURE
1 MOL         1
