@<TRIPOS>MOLECULE
lig.CNR1.LA_init.mol2
62 64 1 0 0
SMALL
AMBER ff14SB


@<TRIPOS>ATOM
      1 C1        -39.9030 -164.5520  306.0430 C.ar      1 8D36021        0.0780
      2 O1        -39.0040 -165.4890  305.6200 O.3       1 8D36021       -0.3605
      3 O2        -41.8830 -163.8010  308.9650 O.3       1 8D36021       -0.3392
      4 C2        -40.2340 -163.5100  305.1890 C.ar      1 8D36021       -0.0278
      5 C3        -41.1420 -162.5500  305.6030 C.ar      1 8D36021       -0.0372
      6 C5        -40.4720 -164.6440  307.3300 C.ar      1 8D36021        0.0200
      7 C6        -41.4030 -164.7170  310.0060 C.3       1 8D36021        0.0764
      8 C4        -41.7200 -162.6890  306.8550 C.ar      1 8D36021       -0.0275
      9 C10       -40.2640 -168.1290  309.6410 C.2       1 8D36021       -0.0595
     10 C11       -40.2540 -168.1560  308.2470 C.2       1 8D36021       -0.0365
     11 C12       -40.4590 -166.9760  307.5090 C.3       1 8D36021       -0.0694
     12 C13       -40.1910 -165.6520  308.2650 C.3       1 8D36021        0.0169
     13 C14       -42.4770 -164.8470  311.0870 C.3       1 8D36021       -0.0349
     14 C15       -40.1070 -164.1790  310.6250 C.3       1 8D36021       -0.0349
     15 C16       -40.0380 -169.3590  307.5820 C.3       1 8D36021       -0.0921
     16 C17       -41.4920 -161.4750  304.7780 C.3       1 8D36021       -0.0102
     17 C18       -43.0050 -161.2390  304.7300 C.3       1 8D36021       -0.0440
     18 C19       -41.0090 -161.7510  303.3550 C.3       1 8D36021       -0.0558
     19 C20       -40.7990 -160.2150  305.2910 C.3       1 8D36021       -0.0558
     20 C21       -43.7330 -162.4480  304.1380 C.3       1 8D36021       -0.0525
     21 C22       -45.2350 -162.1580  304.0900 C.3       1 8D36021       -0.0532
     22 C23       -45.9650 -163.3520  303.4640 C.3       1 8D36021       -0.0525
     23 C24       -47.4650 -163.0570  303.4040 C.3       1 8D36021       -0.0435
     24 C25       -48.2290 -164.2180  302.7540 C.3       1 8D36021        0.0031
     25 C7        -41.2300 -163.5580  307.8050 C.ar      1 8D36021        0.0824
     26 C8        -41.2380 -165.9710  309.3140 C.3       1 8D36021        0.0168
     27 C9        -40.4830 -166.8940  310.2370 C.3       1 8D36021       -0.0771
     28 BR1       -48.0150 -165.8780  303.7420 Br        1 8D36021       -0.0928
     29 H2        -39.7866 -163.4480  304.2080 H         1 8D36021        0.0654
     30 H4        -42.5881 -162.0930  307.0951 H         1 8D36021        0.0654
     31 H10       -40.1093 -169.0228  310.2272 H         1 8D36021        0.0625
     32 H12       -40.7832 -166.9928  306.4790 H         1 8D36021        0.0589
     33 H13       -39.1821 -165.5885  308.6727 H         1 8D36021        0.0405
     34 H182      -43.2092 -160.3637  304.1134 H         1 8D36021        0.0275
     35 H183      -43.3720 -161.0591  305.7405 H         1 8D36021        0.0275
     36 H212      -43.3659 -162.6362  303.1291 H         1 8D36021        0.0267
     37 H213      -43.5509 -163.3237  304.7610 H         1 8D36021        0.0267
     38 H222      -45.6062 -161.9949  305.1018 H         1 8D36021        0.0267
     39 H223      -45.4141 -161.2665  303.4889 H         1 8D36021        0.0267
     40 H232      -45.5872 -163.5208  302.4556 H         1 8D36021        0.0267
     41 H233      -45.7934 -164.2415  304.0702 H         1 8D36021        0.0267
     42 H242      -47.8393 -162.9070  304.4167 H         1 8D36021        0.0275
     43 H243      -47.6291 -162.1496  302.8228 H         1 8D36021        0.0275
     44 H252      -47.8543 -164.3615  301.7405 H         1 8D36021        0.0387
     45 H253      -49.2883 -163.9653  302.7088 H         1 8D36021        0.0387
     46 H8        -42.1618 -166.3900  308.9151 H         1 8D36021        0.0385
     47 H9        -40.1554 -166.6292  311.2315 H         1 8D36021        0.0580
     48 H161      -40.0287 -169.3851  306.5024 H         1 8D36021        0.0544
     49 H162      -39.8797 -170.2666  308.1455 H         1 8D36021        0.0544
     50 H141      -42.5920 -163.8933  311.6022 H         1 8D36021        0.0260
     51 H142      -43.4241 -165.1271  310.6260 H         1 8D36021        0.0260
     52 H143      -42.1808 -165.6135  311.8032 H         1 8D36021        0.0260
     53 H201      -41.1332 -160.0039  306.3068 H         1 8D36021        0.0239
     54 H202      -39.7197 -160.3675  305.2882 H         1 8D36021        0.0239
     55 H203      -41.0488 -159.3740  304.6441 H         1 8D36021        0.0239
     56 H151      -40.3392 -163.6380  311.5423 H         1 8D36021        0.0260
     57 H152      -39.6200 -163.5056  309.9197 H         1 8D36021        0.0260
     58 H153      -39.4404 -165.0108  310.8526 H         1 8D36021        0.0260
     59 H1        -39.4741 -166.2363  305.2429 H         1 8D36021        0.2183
     60 H191      -41.3814 -160.9741  302.6873 H         1 8D36021        0.0239
     61 H192      -41.3819 -162.7212  303.0268 H         1 8D36021        0.0239
     62 H193      -39.9192 -161.7551  303.3356 H         1 8D36021        0.0239
@<TRIPOS>BOND
     1   24   23 1
     2   24   28 1
     3   18   16 1
     4   23   22 1
     5   22   21 1
     6   21   20 1
     7   20   17 1
     8   17   16 1
     9   16   19 1
    10   16    5 1
    11    4    5 ar
    12    4    1 ar
    13    5    8 ar
    14    2    1 1
    15    1    6 ar
    16    8   25 ar
    17    6   25 ar
    18    6   12 1
    19   11   10 1
    20   11   12 1
    21   15   10 1
    22   25    3 1
    23   10    9 2
    24   12   26 1
    25    3    7 1
    26   26    7 1
    27   26   27 1
    28    9   27 1
    29    7   14 1
    30    7   13 1
    31   29    4 1
    32   30    8 1
    33   31    9 1
    34   32   11 1
    35   33   12 1
    36   34   17 1
    37   35   17 1
    38   36   20 1
    39   37   20 1
    40   38   21 1
    41   39   21 1
    42   40   22 1
    43   41   22 1
    44   42   23 1
    45   43   23 1
    46   44   24 1
    47   45   24 1
    48   46   26 1
    49   47   27 1
    50   48   15 1
    51   49   15 1
    52   50   13 1
    53   51   13 1
    54   52   13 1
    55   53   19 1
    56   54   19 1
    57   55   19 1
    58   56   14 1
    59   57   14 1
    60   58   14 1
    61   59    2 1
    62   60   18 1
    63   61   18 1
    64   62   18 1
@<TRIPOS>SUBSTRUCTURE
     1 8D36021        1 RESIDUE           4 A     8D3602     0 ROOT
