@<TRIPOS>MOLECULE
query molecule
   29    31     1     0     0
SMALL
NO_CHARGE

@<TRIPOS>ATOM
      1 C1        -22.3036   -0.0713   14.5027 C.ar      1 MOL     0.0780
      2 O1        -23.5360    0.2236   13.9935 O.3       1 MOL    -0.3605
      3 O2        -20.8417   -1.2609   17.5801 O.3       1 MOL    -0.3392
      4 C2        -21.1907    0.0771   13.6878 C.ar      1 MOL     0.0376
      5 C3        -19.9339   -0.2198   14.1876 C.ar      1 MOL    -0.0372
      6 C5        -22.1748   -0.5275   15.8308 C.ar      1 MOL     0.0200
      7 C6        -21.9752   -1.6782   18.4133 C.3       1 MOL     0.0764
      8 C4        -19.8311   -0.6231   15.5096 C.ar      1 MOL     0.0379
      9 C10       -25.2623   -0.1893   18.6383 C.2       1 MOL     0.0030
     10 C11       -25.1165    0.7040   17.5778 C.2       1 MOL    -0.0365
     11 C12       -23.9918    0.6345   16.7357 C.3       1 MOL    -0.0105
     12 C13       -23.2401   -0.7188   16.7240 C.3       1 MOL     0.0574
     13 C14       -21.5315   -1.7084   19.8766 C.3       1 MOL     0.0431
     14 C15       -22.4570   -3.0710   17.9889 C.3       1 MOL     0.0431
     15 C16       -26.0920    1.6699   17.3506 C.3       1 MOL     0.0167
     16 C17       -18.7874   -0.0977   13.3943 C.3       1 MOL    -0.0102
     17 C18       -17.4946   -0.1947   14.2106 C.3       1 MOL     0.0110
     18 C19       -18.8026    1.2571   12.6881 C.3       1 MOL     0.0159
     19 C20       -18.8017   -1.1979   12.3359 C.3       1 MOL     0.0159
     20 C21       -16.3639    0.5959   13.5485 C.3       1 MOL     0.0009
     21 C22       -15.5771    1.3477   14.6247 C.3       1 MOL     0.0002
     22 C23       -16.2789    2.6748   14.9356 C.3       1 MOL     0.0009
     23 C24       -16.3569    2.8665   16.4515 C.3       1 MOL     0.0115
     24 C25       -16.3051    4.3545   16.8218 C.3       1 MOL     0.0805
     25 C7        -20.9236   -1.0139   16.2522 C.ar      1 MOL     0.0824
     26 C8        -22.9542   -0.6394   18.2107 C.3       1 MOL     0.0553
     27 C9        -24.2519   -1.1274   18.8039 C.3       1 MOL    -0.0191
     28 BR1       -17.8045    4.8820   17.9404 Br        1 MOL    -0.0928
     29 H1        -23.4841    0.2684   13.0361 H         1 MOL     0.2183
@<TRIPOS>BOND
     1   24   23 1 
     2   24   28 1 
     3   18   16 1 
     4   23   22 1 
     5   22   21 1 
     6   21   20 1 
     7   20   17 1 
     8   17   16 1 
     9   16   19 1 
    10   16    5 1 
    11    4    5 ar
    12    4    1 ar
    13    5    8 ar
    14    2    1 1 
    15    1    6 ar
    16    8   25 ar
    17    6   25 ar
    18    6   12 1 
    19   11   10 1 
    20   11   12 1 
    21   15   10 1 
    22   25    3 1 
    23   10    9 2 
    24   12   26 1 
    25    3    7 1 
    26   26    7 1 
    27   26   27 1 
    28    9   27 1 
    29    7   14 1 
    30    7   13 1 
    31   29    2 1 
@<TRIPOS>SUBSTRUCTURE
1 MOL         1
@<TRIPOS>MOLECULE
query molecule
   29    31     1     0     0
SMALL
NO_CHARGE

@<TRIPOS>ATOM
      1 C1        -20.6542   -0.4534   16.4619 C.ar      1 MOL     0.0780
      2 O1        -20.3881   -0.7905   17.7583 O.3       1 MOL    -0.3605
      3 O2        -23.4198    0.7286   14.4677 O.3       1 MOL    -0.3392
      4 C2        -19.6322   -0.5339   15.5272 C.ar      1 MOL     0.0376
      5 C3        -19.8843   -0.1934   14.2088 C.ar      1 MOL    -0.0372
      6 C5        -21.9446   -0.0225   16.0908 C.ar      1 MOL     0.0200
      7 C6        -24.4721    1.0763   15.4294 C.3       1 MOL     0.0764
      8 C4        -21.1722    0.1836   13.8624 C.ar      1 MOL     0.0379
      9 C10       -25.2922   -0.5606   18.5472 C.2       1 MOL     0.0030
     10 C11       -24.1964   -1.4221   18.5795 C.2       1 MOL    -0.0365
     11 C12       -23.1523   -1.2838   17.6469 C.3       1 MOL    -0.0105
     12 C13       -23.0353    0.1011   16.9652 C.3       1 MOL     0.0574
     13 C14       -25.8199    1.0924   14.7067 C.3       1 MOL     0.0431
     14 C15       -24.1943    2.4559   16.0390 C.3       1 MOL     0.0431
     15 C16       -24.1353   -2.4246   19.5425 C.3       1 MOL     0.0167
     16 C17       -18.8778   -0.2468   13.2378 C.3       1 MOL    -0.0102
     17 C18       -17.5538   -0.7825   13.7922 C.3       1 MOL     0.0110
     18 C19       -18.6293    1.1573   12.6888 C.3       1 MOL     0.0159
     19 C20       -19.3459   -1.1410   12.0923 C.3       1 MOL     0.0159
     20 C21       -16.3617   -0.0332   13.1927 C.3       1 MOL     0.0009
     21 C22       -15.5725    0.6406   14.3176 C.3       1 MOL     0.0002
     22 C23       -16.5414    1.3777   15.2495 C.3       1 MOL     0.0009
     23 C24       -15.8666    2.6398   15.7902 C.3       1 MOL     0.0115
     24 C25       -16.8034    3.8508   15.6908 C.3       1 MOL     0.0805
     25 C7        -22.1268    0.5088   14.8008 C.ar      1 MOL     0.0824
     26 C8        -24.4336    0.0003   16.3883 C.3       1 MOL     0.0553
     27 C9        -25.2851    0.4170   17.5610 C.3       1 MOL    -0.0191
     28 BR1       -17.0417    4.7334   17.4060 Br        1 MOL    -0.0928
     29 H1        -20.7958   -0.1500   18.3455 H         1 MOL     0.2183
@<TRIPOS>BOND
     1   24   23 1 
     2   24   28 1 
     3   18   16 1 
     4   23   22 1 
     5   22   21 1 
     6   21   20 1 
     7   20   17 1 
     8   17   16 1 
     9   16   19 1 
    10   16    5 1 
    11    4    5 ar
    12    4    1 ar
    13    5    8 ar
    14    2    1 1 
    15    1    6 ar
    16    8   25 ar
    17    6   25 ar
    18    6   12 1 
    19   11   10 1 
    20   11   12 1 
    21   15   10 1 
    22   25    3 1 
    23   10    9 2 
    24   12   26 1 
    25    3    7 1 
    26   26    7 1 
    27   26   27 1 
    28    9   27 1 
    29    7   14 1 
    30    7   13 1 
    31   29    2 1 
@<TRIPOS>SUBSTRUCTURE
1 MOL         1
@<TRIPOS>MOLECULE
query molecule
   29    31     1     0     0
SMALL
NO_CHARGE

@<TRIPOS>ATOM
      1 C1        -20.3875   -0.6721   17.2260 C.ar      1 MOL     0.0780
      2 O1        -19.2904   -1.0840   17.9273 O.3       1 MOL    -0.3605
      3 O2        -21.2091    0.5795   13.9425 O.3       1 MOL    -0.3392
      4 C2        -21.6285   -0.7076   17.8450 C.ar      1 MOL     0.0376
      5 C3        -22.7516   -0.2959   17.1474 C.ar      1 MOL    -0.0372
      6 C5        -20.2536   -0.2299   15.8936 C.ar      1 MOL     0.0200
      7 C6        -19.9882    0.4123   13.1459 C.3       1 MOL     0.0764
      8 C4        -22.5857    0.1763   15.8550 C.ar      1 MOL     0.0379
      9 C10       -16.5501    0.7585   14.2096 C.2       1 MOL     0.0030
     10 C11       -16.8068    0.8837   15.5743 C.2       1 MOL    -0.0365
     11 C12       -18.1020    0.6680   16.0794 C.3       1 MOL    -0.0105
     12 C13       -19.0455   -0.1694   15.1823 C.3       1 MOL     0.0574
     13 C14       -20.0506    1.3492   11.9387 C.3       1 MOL     0.0431
     14 C15       -19.8647   -1.0401   12.6689 C.3       1 MOL     0.0431
     15 C16       -15.7735    1.2228   16.4423 C.3       1 MOL     0.0167
     16 C17       -24.0237   -0.3297   17.7301 C.3       1 MOL    -0.0102
     17 C18       -24.8905    0.8649   17.3192 C.3       1 MOL     0.0110
     18 C19       -23.8840   -0.3142   19.2515 C.3       1 MOL     0.0159
     19 C20       -24.7191   -1.6252   17.3187 C.3       1 MOL     0.0159
     20 C21       -25.5454    0.6280   15.9565 C.3       1 MOL     0.0009
     21 C22       -25.8146    1.9769   15.2854 C.3       1 MOL     0.0002
     22 C23       -26.4651    1.7445   13.9167 C.3       1 MOL     0.0009
     23 C24       -27.0764    3.0541   13.4148 C.3       1 MOL     0.0115
     24 C25       -28.5871    3.0939   13.6803 C.3       1 MOL     0.0805
     25 C7        -21.4223   -0.0106   15.1414 C.ar      1 MOL     0.0824
     26 C8        -18.9333    0.8207   14.0397 C.3       1 MOL     0.0553
     27 C9        -17.6276    0.4155   13.4035 C.3       1 MOL    -0.0191
     28 BR1       -29.1264    4.7238   14.5915 Br        1 MOL    -0.0928
     29 H1        -19.4307   -1.9791   18.2440 H         1 MOL     0.2183
@<TRIPOS>BOND
     1   24   23 1 
     2   24   28 1 
     3   18   16 1 
     4   23   22 1 
     5   22   21 1 
     6   21   20 1 
     7   20   17 1 
     8   17   16 1 
     9   16   19 1 
    10   16    5 1 
    11    4    5 ar
    12    4    1 ar
    13    5    8 ar
    14    2    1 1 
    15    1    6 ar
    16    8   25 ar
    17    6   25 ar
    18    6   12 1 
    19   11   10 1 
    20   11   12 1 
    21   15   10 1 
    22   25    3 1 
    23   10    9 2 
    24   12   26 1 
    25    3    7 1 
    26   26    7 1 
    27   26   27 1 
    28    9   27 1 
    29    7   14 1 
    30    7   13 1 
    31   29    2 1 
@<TRIPOS>SUBSTRUCTURE
1 MOL         1
@<TRIPOS>MOLECULE
query molecule
   29    31     1     0     0
SMALL
NO_CHARGE

@<TRIPOS>ATOM
      1 C1        -21.4893   -0.3182   14.5982 C.ar      1 MOL     0.0780
      2 O1        -21.6418   -0.6928   13.2938 O.3       1 MOL    -0.3605
      3 O2        -18.8852    0.8351   16.8142 O.3       1 MOL    -0.3392
      4 C2        -22.5994   -0.3272   15.4302 C.ar      1 MOL     0.0376
      5 C3        -22.4629    0.0520   16.7550 C.ar      1 MOL    -0.0372
      6 C5        -20.2248    0.0789   15.0798 C.ar      1 MOL     0.0200
      7 C6        -17.7317    1.1089   15.9495 C.3       1 MOL     0.0764
      8 C4        -21.2007    0.3945   17.2136 C.ar      1 MOL     0.0379
      9 C10       -16.6791   -0.6699   12.9831 C.2       1 MOL     0.0030
     10 C11       -17.7999   -1.4918   12.8717 C.2       1 MOL    -0.0365
     11 C12       -18.9232   -1.2815   13.6923 C.3       1 MOL    -0.0105
     12 C13       -19.0506    0.1308   14.3131 C.3       1 MOL     0.0574
     13 C14       -16.4607    1.1027   16.8001 C.3       1 MOL     0.0431
     14 C15       -17.8942    2.4744   15.2704 C.3       1 MOL     0.0431
     15 C16       -17.8072   -2.5260   11.9409 C.3       1 MOL     0.0167
     16 C17       -23.5601    0.0709   17.6237 C.3       1 MOL    -0.0102
     17 C18       -24.5678    1.1707   17.2743 C.3       1 MOL     0.0110
     18 C19       -23.0712    0.3108   19.0512 C.3       1 MOL     0.0159
     19 C20       -24.2543   -1.2878   17.5693 C.3       1 MOL     0.0159
     20 C21       -25.2822    0.8652   15.9558 C.3       1 MOL     0.0009
     21 C22       -25.6885    2.1801   15.2863 C.3       1 MOL     0.0002
     22 C23       -26.7922    1.9086   14.2575 C.3       1 MOL     0.0009
     23 C24       -27.2677    3.2341   13.6594 C.3       1 MOL     0.0115
     24 C25       -28.6316    3.6395   14.2334 C.3       1 MOL     0.0805
     25 C7        -20.1475    0.6503   16.3632 C.ar      1 MOL     0.0824
     26 C8        -17.7198    0.0006   15.0275 C.3       1 MOL     0.0553
     27 C9        -16.7429    0.3428   13.9310 C.3       1 MOL    -0.0191
     28 BR1       -28.6173    5.4487   14.9433 Br        1 MOL    -0.0928
     29 H1        -22.1497   -0.0256   12.8267 H         1 MOL     0.2183
@<TRIPOS>BOND
     1   24   23 1 
     2   24   28 1 
     3   18   16 1 
     4   23   22 1 
     5   22   21 1 
     6   21   20 1 
     7   20   17 1 
     8   17   16 1 
     9   16   19 1 
    10   16    5 1 
    11    4    5 ar
    12    4    1 ar
    13    5    8 ar
    14    2    1 1 
    15    1    6 ar
    16    8   25 ar
    17    6   25 ar
    18    6   12 1 
    19   11   10 1 
    20   11   12 1 
    21   15   10 1 
    22   25    3 1 
    23   10    9 2 
    24   12   26 1 
    25    3    7 1 
    26   26    7 1 
    27   26   27 1 
    28    9   27 1 
    29    7   14 1 
    30    7   13 1 
    31   29    2 1 
@<TRIPOS>SUBSTRUCTURE
1 MOL         1
@<TRIPOS>MOLECULE
query molecule
   29    31     1     0     0
SMALL
NO_CHARGE

@<TRIPOS>ATOM
      1 C1        -19.2874   -0.4957   17.1915 C.ar      1 MOL     0.0780
      2 O1        -18.1964   -0.1544   17.9388 O.3       1 MOL    -0.3605
      3 O2        -20.3037   -0.5660   13.7297 O.3       1 MOL    -0.3392
      4 C2        -20.4106   -0.9922   17.8369 C.ar      1 MOL     0.0376
      5 C3        -21.5246   -1.3453   17.0941 C.ar      1 MOL    -0.0372
      6 C5        -19.2603   -0.3524   15.7889 C.ar      1 MOL     0.0200
      7 C6        -19.0848   -0.2900   12.9608 C.3       1 MOL     0.0764
      8 C4        -21.4876   -1.1523   15.7221 C.ar      1 MOL     0.0379
      9 C10       -16.3456    1.9112   13.8116 C.2       1 MOL     0.0030
     10 C11       -16.7545    2.1948   15.1141 C.2       1 MOL    -0.0365
     11 C12       -17.8284    1.4944   15.6932 C.3       1 MOL    -0.0105
     12 C13       -18.1693    0.1287   15.0490 C.3       1 MOL     0.0574
     13 C14       -19.4774    0.2036   11.5675 C.3       1 MOL     0.0431
     14 C15       -18.2380   -1.5631   12.8401 C.3       1 MOL     0.0431
     15 C16       -16.0940    3.1766   15.8460 C.3       1 MOL     0.0167
     16 C17       -22.6724   -1.8636   17.7045 C.3       1 MOL    -0.0102
     17 C18       -22.9435   -1.2359   19.0756 C.3       1 MOL     0.0110
     18 C19       -22.5072   -3.3703   17.8963 C.3       1 MOL     0.0159
     19 C20       -23.8698   -1.6182   16.7897 C.3       1 MOL     0.0159
     20 C21       -23.1259    0.2793   18.9619 C.3       1 MOL     0.0009
     21 C22       -24.6152    0.6167   19.0645 C.3       1 MOL     0.0002
     22 C23       -24.9146    1.8637   18.2244 C.3       1 MOL     0.0009
     23 C24       -25.8888    1.4996   17.1023 C.3       1 MOL     0.0115
     24 C25       -25.4389    2.1028   15.7652 C.3       1 MOL     0.0805
     25 C7        -20.3170   -0.9025   15.0403 C.ar      1 MOL     0.0824
     26 C8        -18.4409    0.7666   13.7008 C.3       1 MOL     0.0553
     27 C9        -17.0486    0.9183   13.1419 C.3       1 MOL    -0.0191
     28 BR1       -24.9169    0.7363   14.4855 Br        1 MOL    -0.0928
     29 H1        -17.4091   -0.1915   17.3910 H         1 MOL     0.2183
@<TRIPOS>BOND
     1   24   23 1 
     2   24   28 1 
     3   18   16 1 
     4   23   22 1 
     5   22   21 1 
     6   21   20 1 
     7   20   17 1 
     8   17   16 1 
     9   16   19 1 
    10   16    5 1 
    11    4    5 ar
    12    4    1 ar
    13    5    8 ar
    14    2    1 1 
    15    1    6 ar
    16    8   25 ar
    17    6   25 ar
    18    6   12 1 
    19   11   10 1 
    20   11   12 1 
    21   15   10 1 
    22   25    3 1 
    23   10    9 2 
    24   12   26 1 
    25    3    7 1 
    26   26    7 1 
    27   26   27 1 
    28    9   27 1 
    29    7   14 1 
    30    7   13 1 
    31   29    2 1 
@<TRIPOS>SUBSTRUCTURE
1 MOL         1
@<TRIPOS>MOLECULE
query molecule
   29    31     1     0     0
SMALL
NO_CHARGE

@<TRIPOS>ATOM
      1 C1        -19.2882   -0.4558   17.1719 C.ar      1 MOL     0.0780
      2 O1        -18.2072   -0.1518   17.9492 O.3       1 MOL    -0.3605
      3 O2        -20.2061   -0.5052   13.6823 O.3       1 MOL    -0.3392
      4 C2        -20.4474   -0.9068   17.7863 C.ar      1 MOL     0.0376
      5 C3        -21.5519   -1.2219   17.0128 C.ar      1 MOL    -0.0372
      6 C5        -19.2154   -0.3205   15.7701 C.ar      1 MOL     0.0200
      7 C6        -18.9560   -0.2787   12.9481 C.3       1 MOL     0.0764
      8 C4        -21.4682   -1.0371   15.6418 C.ar      1 MOL     0.0379
      9 C10       -16.1621    1.8230   13.8696 C.2       1 MOL     0.0030
     10 C11       -16.5975    2.1280   15.1585 C.2       1 MOL    -0.0365
     11 C12       -17.7131    1.4711   15.7090 C.3       1 MOL    -0.0105
     12 C13       -18.0862    0.1159   15.0604 C.3       1 MOL     0.0574
     13 C14       -19.2895    0.2224   11.5421 C.3       1 MOL     0.0431
     14 C15       -18.1544   -1.5830   12.8569 C.3       1 MOL     0.0431
     15 C16       -15.9220    3.0881   15.9056 C.3       1 MOL     0.0167
     16 C17       -22.7355   -1.6939   17.5917 C.3       1 MOL    -0.0102
     17 C18       -22.7129   -1.6174   19.1217 C.3       1 MOL     0.0110
     18 C19       -22.9473   -3.1533   17.1922 C.3       1 MOL     0.0159
     19 C20       -23.9058   -0.8696   17.0607 C.3       1 MOL     0.0159
     20 C21       -23.8604   -2.4262   19.7310 C.3       1 MOL     0.0009
     21 C22       -24.3774   -1.7062   20.9788 C.3       1 MOL     0.0002
     22 C23       -23.7739   -2.3564   22.2292 C.3       1 MOL     0.0009
     23 C24       -24.8968   -2.7464   23.1924 C.3       1 MOL     0.0115
     24 C25       -25.6792   -3.9563   22.6650 C.3       1 MOL     0.0805
     25 C7        -20.2698   -0.8345   14.9932 C.ar      1 MOL     0.0824
     26 C8        -18.2947    0.7568   13.7024 C.3       1 MOL     0.0553
     27 C9        -16.8821    0.8537   13.1836 C.3       1 MOL    -0.0191
     28 BR1       -27.5493   -3.9036   23.1918 Br        1 MOL    -0.0928
     29 H1        -18.3057   -0.5651   18.8098 H         1 MOL     0.2183
@<TRIPOS>BOND
     1   24   23 1 
     2   24   28 1 
     3   18   16 1 
     4   23   22 1 
     5   22   21 1 
     6   21   20 1 
     7   20   17 1 
     8   17   16 1 
     9   16   19 1 
    10   16    5 1 
    11    4    5 ar
    12    4    1 ar
    13    5    8 ar
    14    2    1 1 
    15    1    6 ar
    16    8   25 ar
    17    6   25 ar
    18    6   12 1 
    19   11   10 1 
    20   11   12 1 
    21   15   10 1 
    22   25    3 1 
    23   10    9 2 
    24   12   26 1 
    25    3    7 1 
    26   26    7 1 
    27   26   27 1 
    28    9   27 1 
    29    7   14 1 
    30    7   13 1 
    31   29    2 1 
@<TRIPOS>SUBSTRUCTURE
1 MOL         1
@<TRIPOS>MOLECULE
query molecule
   29    31     1     0     0
SMALL
NO_CHARGE

@<TRIPOS>ATOM
      1 C1        -23.2790    0.3073   14.2274 C.ar      1 MOL     0.0780
      2 O1        -23.9607    0.2101   13.0480 O.3       1 MOL    -0.3605
      3 O2        -23.9309    1.0588   17.6962 O.3       1 MOL    -0.3392
      4 C2        -21.9154    0.0519   14.2341 C.ar      1 MOL     0.0376
      5 C3        -21.2094    0.1435   15.4218 C.ar      1 MOL    -0.0372
      6 C5        -23.9586    0.6517   15.4141 C.ar      1 MOL     0.0200
      7 C6        -25.3927    1.0975   17.8178 C.3       1 MOL     0.0764
      8 C4        -21.8931    0.5276   16.5646 C.ar      1 MOL     0.0379
      9 C10       -27.8135    2.2853   15.4092 C.2       1 MOL     0.0030
     10 C11       -26.9241    2.4677   14.3510 C.2       1 MOL    -0.0365
     11 C12       -25.5956    2.0155   14.4495 C.3       1 MOL    -0.0105
     12 C13       -25.3336    0.9162   15.5074 C.3       1 MOL     0.0574
     13 C14       -25.7661    1.8899   19.0714 C.3       1 MOL     0.0431
     14 C15       -25.9512   -0.3272   17.9196 C.3       1 MOL     0.0431
     15 C16       -27.3551    3.1004   13.1891 C.3       1 MOL     0.0167
     16 C17       -19.8359   -0.1202   15.4746 C.3       1 MOL    -0.0102
     17 C18       -19.0647    0.5474   14.3315 C.3       1 MOL     0.0110
     18 C19       -19.6065   -1.6281   15.3853 C.3       1 MOL     0.0159
     19 C20       -19.2905    0.3763   16.8113 C.3       1 MOL     0.0159
     20 C21       -18.6396   -0.4797   13.2796 C.3       1 MOL     0.0009
     21 C22       -17.9487    0.2424   12.1205 C.3       1 MOL     0.0002
     22 C23       -16.4284    0.1339   12.2859 C.3       1 MOL     0.0009
     23 C24       -15.9091    1.3619   13.0362 C.3       1 MOL     0.0115
     24 C25       -15.5537    1.0112   14.4870 C.3       1 MOL     0.0805
     25 C7        -23.2688    0.5416   16.6354 C.ar      1 MOL     0.0824
     26 C8        -25.8193    1.8044   16.6359 C.3       1 MOL     0.0553
     27 C9        -27.3155    1.6445   16.5361 C.3       1 MOL    -0.0191
     28 BR1       -16.0613    2.4207   15.7251 Br        1 MOL    -0.0928
     29 H1        -23.4298    0.5816   12.3401 H         1 MOL     0.2183
@<TRIPOS>BOND
     1   24   23 1 
     2   24   28 1 
     3   18   16 1 
     4   23   22 1 
     5   22   21 1 
     6   21   20 1 
     7   20   17 1 
     8   17   16 1 
     9   16   19 1 
    10   16    5 1 
    11    4    5 ar
    12    4    1 ar
    13    5    8 ar
    14    2    1 1 
    15    1    6 ar
    16    8   25 ar
    17    6   25 ar
    18    6   12 1 
    19   11   10 1 
    20   11   12 1 
    21   15   10 1 
    22   25    3 1 
    23   10    9 2 
    24   12   26 1 
    25    3    7 1 
    26   26    7 1 
    27   26   27 1 
    28    9   27 1 
    29    7   14 1 
    30    7   13 1 
    31   29    2 1 
@<TRIPOS>SUBSTRUCTURE
1 MOL         1
@<TRIPOS>MOLECULE
query molecule
   29    31     1     0     0
SMALL
NO_CHARGE

@<TRIPOS>ATOM
      1 C1        -20.2895   -0.6379   16.1687 C.ar      1 MOL     0.0780
      2 O1        -19.8950   -0.9979   17.4256 O.3       1 MOL    -0.3605
      3 O2        -23.2455    0.5586   14.4797 O.3       1 MOL    -0.3392
      4 C2        -19.3638   -0.6914   15.1367 C.ar      1 MOL     0.0376
      5 C3        -19.7465   -0.3276   13.8566 C.ar      1 MOL    -0.0372
      6 C5        -21.6130   -0.2111   15.9348 C.ar      1 MOL     0.0200
      7 C6        -24.2006    0.8785   15.5469 C.3       1 MOL     0.0764
      8 C4        -21.0647    0.0449   13.6459 C.ar      1 MOL     0.0379
      9 C10       -24.6993   -0.8257   18.6963 C.2       1 MOL     0.0030
     10 C11       -23.5999   -1.6782   18.6036 C.2       1 MOL    -0.0365
     11 C12       -22.6534   -1.5128   17.5760 C.3       1 MOL    -0.0105
     12 C13       -22.6132   -0.1139   16.9143 C.3       1 MOL     0.0574
     13 C14       -25.6129    0.8970   14.9604 C.3       1 MOL     0.0431
     14 C15       -23.8734    2.2484   16.1540 C.3       1 MOL     0.0431
     15 C16       -23.4378   -2.6986   19.5356 C.3       1 MOL     0.0167
     16 C17       -18.8399   -0.3533   12.7907 C.3       1 MOL    -0.0102
     17 C18       -17.3819   -0.3901   13.2597 C.3       1 MOL     0.0110
     18 C19       -19.0316    0.8965   11.9331 C.3       1 MOL     0.0159
     19 C20       -19.1263   -1.5819   11.9307 C.3       1 MOL     0.0159
     20 C21       -16.4986    0.5019   12.3843 C.3       1 MOL     0.0009
     21 C22       -15.7662    1.5116   13.2712 C.3       1 MOL     0.0002
     22 C23       -15.9224    1.1063   14.7415 C.3       1 MOL     0.0009
     23 C24       -15.9266    2.3605   15.6175 C.3       1 MOL     0.0115
     24 C25       -17.0411    2.2933   16.6699 C.3       1 MOL     0.0805
     25 C7        -21.9246    0.3436   14.6799 C.ar      1 MOL     0.0824
     26 C8        -24.0608   -0.2155   16.4754 C.3       1 MOL     0.0553
     27 C9        -24.7957    0.1709   17.7341 C.3       1 MOL    -0.0191
     28 BR1       -17.0456    0.5994   17.6228 Br        1 MOL    -0.0928
     29 H1        -20.3298   -0.4356   18.0706 H         1 MOL     0.2183
@<TRIPOS>BOND
     1   24   23 1 
     2   24   28 1 
     3   18   16 1 
     4   23   22 1 
     5   22   21 1 
     6   21   20 1 
     7   20   17 1 
     8   17   16 1 
     9   16   19 1 
    10   16    5 1 
    11    4    5 ar
    12    4    1 ar
    13    5    8 ar
    14    2    1 1 
    15    1    6 ar
    16    8   25 ar
    17    6   25 ar
    18    6   12 1 
    19   11   10 1 
    20   11   12 1 
    21   15   10 1 
    22   25    3 1 
    23   10    9 2 
    24   12   26 1 
    25    3    7 1 
    26   26    7 1 
    27   26   27 1 
    28    9   27 1 
    29    7   14 1 
    30    7   13 1 
    31   29    2 1 
@<TRIPOS>SUBSTRUCTURE
1 MOL         1
@<TRIPOS>MOLECULE
query molecule
   29    31     1     0     0
SMALL
NO_CHARGE

@<TRIPOS>ATOM
      1 C1        -20.1852   -0.3755   14.2795 C.ar      1 MOL     0.0780
      2 O1        -20.1939   -0.6455   12.9408 O.3       1 MOL    -0.3605
      3 O2        -18.1484    1.3710   16.6926 O.3       1 MOL    -0.3392
      4 C2        -21.2270   -0.8494   15.0635 C.ar      1 MOL     0.0376
      5 C3        -21.2350   -0.5826   16.4223 C.ar      1 MOL    -0.0372
      6 C5        -19.1376    0.3807   14.8446 C.ar      1 MOL     0.0200
      7 C6        -17.1572    2.1103   15.9026 C.3       1 MOL     0.0764
      8 C4        -20.1706    0.1241   16.9593 C.ar      1 MOL     0.0379
      9 C10       -15.5435    1.1113   12.8252 C.2       1 MOL     0.0030
     10 C11       -16.3109   -0.0296   12.5942 C.2       1 MOL    -0.0365
     11 C12       -17.4408   -0.3021   13.3869 C.3       1 MOL    -0.0105
     12 C13       -18.0507    0.9099   14.1320 C.3       1 MOL     0.0574
     13 C14       -15.9656    2.4548   16.7972 C.3       1 MOL     0.0431
     14 C15       -17.7789    3.3983   15.3487 C.3       1 MOL     0.0431
     15 C16       -15.9568   -0.9035   11.5710 C.3       1 MOL     0.0167
     16 C17       -22.2744   -1.0297   17.2460 C.3       1 MOL    -0.0102
     17 C18       -21.7868   -1.4338   18.6410 C.3       1 MOL     0.0110
     18 C19       -22.9406   -2.2461   16.6049 C.3       1 MOL     0.0159
     19 C20       -23.3130    0.0819   17.3749 C.3       1 MOL     0.0159
     20 C21       -22.8700   -2.2009   19.4029 C.3       1 MOL     0.0009
     21 C22       -23.3169   -1.3749   20.6114 C.3       1 MOL     0.0002
     22 C23       -23.0194   -2.1527   21.8986 C.3       1 MOL     0.0009
     23 C24       -24.3237   -2.3918   22.6617 C.3       1 MOL     0.0115
     24 C25       -25.0494   -3.6369   22.1353 C.3       1 MOL     0.0805
     25 C7        -19.2674    0.8107   16.1779 C.ar      1 MOL     0.0824
     26 C8        -16.7596    1.1730   14.8819 C.3       1 MOL     0.0553
     27 C9        -15.9569    1.9390   13.8608 C.3       1 MOL    -0.0191
     28 BR1       -26.7761   -3.8926   22.9900 Br        1 MOL    -0.0928
     29 H1        -20.9224   -0.1790   12.5251 H         1 MOL     0.2183
@<TRIPOS>BOND
     1   24   23 1 
     2   24   28 1 
     3   18   16 1 
     4   23   22 1 
     5   22   21 1 
     6   21   20 1 
     7   20   17 1 
     8   17   16 1 
     9   16   19 1 
    10   16    5 1 
    11    4    5 ar
    12    4    1 ar
    13    5    8 ar
    14    2    1 1 
    15    1    6 ar
    16    8   25 ar
    17    6   25 ar
    18    6   12 1 
    19   11   10 1 
    20   11   12 1 
    21   15   10 1 
    22   25    3 1 
    23   10    9 2 
    24   12   26 1 
    25    3    7 1 
    26   26    7 1 
    27   26   27 1 
    28    9   27 1 
    29    7   14 1 
    30    7   13 1 
    31   29    2 1 
@<TRIPOS>SUBSTRUCTURE
1 MOL         1
@<TRIPOS>MOLECULE
query molecule
   29    31     1     0     0
SMALL
NO_CHARGE

@<TRIPOS>ATOM
      1 C1        -21.4006   -0.8405   15.2651 C.ar      1 MOL     0.0780
      2 O1        -22.0837   -0.5581   14.1167 O.3       1 MOL    -0.3605
      3 O2        -18.1942   -0.1451   16.7677 O.3       1 MOL    -0.3392
      4 C2        -22.0196   -1.6108   16.2388 C.ar      1 MOL     0.0376
      5 C3        -21.3421   -1.9044   17.4102 C.ar      1 MOL    -0.0372
      6 C5        -20.0937   -0.3454   15.4538 C.ar      1 MOL     0.0200
      7 C6        -17.5740    0.8700   15.9086 C.3       1 MOL     0.0764
      8 C4        -20.0427   -1.4432   17.5508 C.ar      1 MOL     0.0379
      9 C10       -17.7994    1.2104   12.3162 C.2       1 MOL     0.0030
     10 C11       -18.7766    0.2365   12.1147 C.2       1 MOL    -0.0365
     11 C12       -19.4316   -0.3544   13.2106 C.3       1 MOL    -0.0105
     12 C13       -19.3921    0.4484   14.5335 C.3       1 MOL     0.0574
     13 C14       -16.0622    0.8599   16.1397 C.3       1 MOL     0.0431
     14 C15       -18.1396    2.2569   16.2385 C.3       1 MOL     0.0431
     15 C16       -19.1068   -0.1518   10.8200 C.3       1 MOL     0.0167
     16 C17       -21.9357   -2.6657   18.4234 C.3       1 MOL    -0.0102
     17 C18       -21.8201   -2.0041   19.8004 C.3       1 MOL     0.0110
     18 C19       -21.2555   -4.0320   18.4944 C.3       1 MOL     0.0159
     19 C20       -23.4096   -2.8734   18.0836 C.3       1 MOL     0.0159
     20 C21       -22.0021   -0.4878   19.7004 C.3       1 MOL     0.0009
     21 C22       -23.4915   -0.1511   19.8035 C.3       1 MOL     0.0002
     22 C23       -23.8704    0.8311   18.6890 C.3       1 MOL     0.0009
     23 C24       -25.1178    0.3219   17.9642 C.3       1 MOL     0.0115
     24 C25       -25.8584    1.4716   17.2686 C.3       1 MOL     0.0805
     25 C7        -19.5040   -0.4821   16.7239 C.ar      1 MOL     0.0824
     26 C8        -17.8768    0.4234   14.5716 C.3       1 MOL     0.0553
     27 C9        -17.5230    1.5501   13.6340 C.3       1 MOL    -0.0191
     28 BR1       -24.9149    2.0995   15.6897 Br        1 MOL    -0.0928
     29 H1        -21.9168   -1.2455   13.4680 H         1 MOL     0.2183
@<TRIPOS>BOND
     1   24   23 1 
     2   24   28 1 
     3   18   16 1 
     4   23   22 1 
     5   22   21 1 
     6   21   20 1 
     7   20   17 1 
     8   17   16 1 
     9   16   19 1 
    10   16    5 1 
    11    4    5 ar
    12    4    1 ar
    13    5    8 ar
    14    2    1 1 
    15    1    6 ar
    16    8   25 ar
    17    6   25 ar
    18    6   12 1 
    19   11   10 1 
    20   11   12 1 
    21   15   10 1 
    22   25    3 1 
    23   10    9 2 
    24   12   26 1 
    25    3    7 1 
    26   26    7 1 
    27   26   27 1 
    28    9   27 1 
    29    7   14 1 
    30    7   13 1 
    31   29    2 1 
@<TRIPOS>SUBSTRUCTURE
1 MOL         1
@<TRIPOS>MOLECULE
query molecule
   29    31     1     0     0
SMALL
NO_CHARGE

@<TRIPOS>ATOM
      1 C1        -20.5953    0.8377   13.4901 C.ar      1 MOL     0.0780
      2 O1        -20.2738    0.9466   12.1672 O.3       1 MOL    -0.3605
      3 O2        -18.9417    0.7428   16.6962 O.3       1 MOL    -0.3392
      4 C2        -21.9323    0.7388   13.8469 C.ar      1 MOL     0.0376
      5 C3        -22.2760    0.6302   15.1838 C.ar      1 MOL    -0.0372
      6 C5        -19.5809    0.8369   14.4697 C.ar      1 MOL     0.0200
      7 C6        -17.5428    1.0912   16.4227 C.3       1 MOL     0.0764
      8 C4        -21.2573    0.5866   16.1226 C.ar      1 MOL     0.0379
      9 C10       -15.5438    0.2449   13.5314 C.2       1 MOL     0.0030
     10 C11       -16.5754   -0.2952   12.7645 C.2       1 MOL    -0.0365
     11 C12       -17.9124   -0.1844   13.1877 C.3       1 MOL    -0.0105
     12 C13       -18.2066    0.9433   14.2065 C.3       1 MOL     0.0574
     13 C14       -16.6720    0.5926   17.5769 C.3       1 MOL     0.0431
     14 C15       -17.3960    2.6114   16.2818 C.3       1 MOL     0.0431
     15 C16       -16.2793   -0.9468   11.5712 C.3       1 MOL     0.0167
     16 C17       -23.6134    0.5428   15.5871 C.3       1 MOL    -0.0102
     17 C18       -23.8019   -0.3665   16.8056 C.3       1 MOL     0.0110
     18 C19       -24.4519   -0.0196   14.4404 C.3       1 MOL     0.0159
     19 C20       -24.1201    1.9445   15.9181 C.3       1 MOL     0.0159
     20 C21       -24.0229    0.4551   18.0777 C.3       1 MOL     0.0009
     21 C22       -22.6669    0.8889   18.6394 C.3       1 MOL     0.0002
     22 C23       -22.2400   -0.0813   19.7470 C.3       1 MOL     0.0009
     23 C24       -21.3069   -1.1431   19.1618 C.3       1 MOL     0.0115
     24 C25       -22.0100   -2.5038   19.0701 C.3       1 MOL     0.0805
     25 C7        -19.9576    0.9302   15.8221 C.ar      1 MOL     0.0824
     26 C8        -17.2349    0.3647   15.2161 C.3       1 MOL     0.0553
     27 C9        -15.9129    0.8828   14.7084 C.3       1 MOL    -0.0191
     28 BR1       -21.8725   -3.2794   17.2933 Br        1 MOL    -0.0928
     29 H1        -21.0093    0.6390   11.6329 H         1 MOL     0.2183
@<TRIPOS>BOND
     1   24   23 1 
     2   24   28 1 
     3   18   16 1 
     4   23   22 1 
     5   22   21 1 
     6   21   20 1 
     7   20   17 1 
     8   17   16 1 
     9   16   19 1 
    10   16    5 1 
    11    4    5 ar
    12    4    1 ar
    13    5    8 ar
    14    2    1 1 
    15    1    6 ar
    16    8   25 ar
    17    6   25 ar
    18    6   12 1 
    19   11   10 1 
    20   11   12 1 
    21   15   10 1 
    22   25    3 1 
    23   10    9 2 
    24   12   26 1 
    25    3    7 1 
    26   26    7 1 
    27   26   27 1 
    28    9   27 1 
    29    7   14 1 
    30    7   13 1 
    31   29    2 1 
@<TRIPOS>SUBSTRUCTURE
1 MOL         1
@<TRIPOS>MOLECULE
query molecule
   29    31     1     0     0
SMALL
NO_CHARGE

@<TRIPOS>ATOM
      1 C1        -23.1453    0.6002   14.5204 C.ar      1 MOL     0.0780
      2 O1        -23.6985    0.5713   13.2721 O.3       1 MOL    -0.3605
      3 O2        -24.1435    1.2461   17.9276 O.3       1 MOL    -0.3392
      4 C2        -21.7993    0.2957   14.6621 C.ar      1 MOL     0.0376
      5 C3        -21.2230    0.3180   15.9210 C.ar      1 MOL    -0.0372
      6 C5        -23.9377    0.9248   15.6408 C.ar      1 MOL     0.0200
      7 C6        -25.6079    1.3330   17.8940 C.3       1 MOL     0.0764
      8 C4        -22.0135    0.6839   16.9990 C.ar      1 MOL     0.0379
      9 C10       -27.7155    2.6954   15.2913 C.2       1 MOL     0.0030
     10 C11       -26.7117    2.8846   14.3422 C.2       1 MOL    -0.0365
     11 C12       -25.4167    2.3815   14.5633 C.3       1 MOL    -0.0105
     12 C13       -25.3056    1.2351   15.5976 C.3       1 MOL     0.0574
     13 C14       -26.0891    2.0915   19.1318 C.3       1 MOL     0.0431
     14 C15       -26.2193   -0.0735   17.8778 C.3       1 MOL     0.0431
     15 C16       -26.9944    3.5749   13.1676 C.3       1 MOL     0.0167
     16 C17       -19.8724    0.0031   16.1093 C.3       1 MOL    -0.0102
     17 C18       -19.6672   -1.1181   17.1330 C.3       1 MOL     0.0110
     18 C19       -19.1284    1.2417   16.6059 C.3       1 MOL     0.0159
     19 C20       -19.2741   -0.4189   14.7695 C.3       1 MOL     0.0159
     20 C21       -20.1295   -2.4659   16.5747 C.3       1 MOL     0.0009
     21 C22       -21.6309   -2.4028   16.2841 C.3       1 MOL     0.0002
     22 C23       -22.3903   -3.2019   17.3494 C.3       1 MOL     0.0009
     23 C24       -22.7440   -2.2822   18.5197 C.3       1 MOL     0.0115
     24 C25       -24.2319   -2.3935   18.8775 C.3       1 MOL     0.0805
     25 C7        -23.3877    0.7449   16.9233 C.ar      1 MOL     0.0824
     26 C8        -25.8818    2.0979   16.7030 C.3       1 MOL     0.0553
     27 C9        -27.3627    1.9959   16.4378 C.3       1 MOL    -0.0191
     28 BR1       -24.5231   -2.4006   20.7991 Br        1 MOL    -0.0928
     29 H1        -23.2104   -0.0438   12.7201 H         1 MOL     0.2183
@<TRIPOS>BOND
     1   24   23 1 
     2   24   28 1 
     3   18   16 1 
     4   23   22 1 
     5   22   21 1 
     6   21   20 1 
     7   20   17 1 
     8   17   16 1 
     9   16   19 1 
    10   16    5 1 
    11    4    5 ar
    12    4    1 ar
    13    5    8 ar
    14    2    1 1 
    15    1    6 ar
    16    8   25 ar
    17    6   25 ar
    18    6   12 1 
    19   11   10 1 
    20   11   12 1 
    21   15   10 1 
    22   25    3 1 
    23   10    9 2 
    24   12   26 1 
    25    3    7 1 
    26   26    7 1 
    27   26   27 1 
    28    9   27 1 
    29    7   14 1 
    30    7   13 1 
    31   29    2 1 
@<TRIPOS>SUBSTRUCTURE
1 MOL         1
@<TRIPOS>MOLECULE
query molecule
   29    31     1     0     0
SMALL
NO_CHARGE

@<TRIPOS>ATOM
      1 C1        -20.2124    0.2042   16.1531 C.ar      1 MOL     0.0780
      2 O1        -19.2005    0.1773   17.0698 O.3       1 MOL    -0.3605
      3 O2        -20.6612   -0.0707   12.5830 O.3       1 MOL    -0.3392
      4 C2        -21.5152    0.3691   16.6003 C.ar      1 MOL     0.0376
      5 C3        -22.5534    0.3962   15.6844 C.ar      1 MOL    -0.0372
      6 C5        -19.9301    0.0561   14.7794 C.ar      1 MOL     0.0200
      7 C6        -19.3579   -0.4947   12.0587 C.3       1 MOL     0.0764
      8 C4        -22.2438    0.2936   14.3373 C.ar      1 MOL     0.0379
      9 C10       -16.0624    0.4329   13.2211 C.2       1 MOL     0.0030
     10 C11       -16.4717    1.1034   14.3731 C.2       1 MOL    -0.0365
     11 C12       -17.8151    1.0546   14.7879 C.3       1 MOL    -0.0105
     12 C13       -18.6496   -0.1262   14.2351 C.3       1 MOL     0.0574
     13 C14       -19.2858   -0.1514   10.5701 C.3       1 MOL     0.0431
     14 C15       -19.1783   -2.0056   12.2514 C.3       1 MOL     0.0431
     15 C16       -15.5435    1.8243   15.1180 C.3       1 MOL     0.0167
     16 C17       -23.8829    0.5460   16.0950 C.3       1 MOL    -0.0102
     17 C18       -24.2377   -0.3581   17.2799 C.3       1 MOL     0.0110
     18 C19       -24.8134    0.1953   14.9349 C.3       1 MOL     0.0159
     19 C20       -24.1171    2.0040   16.4826 C.3       1 MOL     0.0159
     20 C21       -24.4688    0.4635   18.5503 C.3       1 MOL     0.0009
     21 C22       -23.1176    0.9049   19.1178 C.3       1 MOL     0.0002
     22 C23       -22.6680   -0.0891   20.1950 C.3       1 MOL     0.0009
     23 C24       -22.2026   -1.3854   19.5290 C.3       1 MOL     0.0115
     24 C25       -22.6229   -2.6095   20.3530 C.3       1 MOL     0.0805
     25 C7        -21.0069   -0.1165   13.8904 C.ar      1 MOL     0.0824
     26 C8        -18.4114    0.3009   12.8001 C.3       1 MOL     0.0553
     27 C9        -17.0414   -0.2678   12.5291 C.3       1 MOL    -0.0191
     28 BR1       -24.5460   -2.6826   20.6248 Br        1 MOL    -0.0928
     29 H1        -18.8466    1.0624   17.1816 H         1 MOL     0.2183
@<TRIPOS>BOND
     1   24   23 1 
     2   24   28 1 
     3   18   16 1 
     4   23   22 1 
     5   22   21 1 
     6   21   20 1 
     7   20   17 1 
     8   17   16 1 
     9   16   19 1 
    10   16    5 1 
    11    4    5 ar
    12    4    1 ar
    13    5    8 ar
    14    2    1 1 
    15    1    6 ar
    16    8   25 ar
    17    6   25 ar
    18    6   12 1 
    19   11   10 1 
    20   11   12 1 
    21   15   10 1 
    22   25    3 1 
    23   10    9 2 
    24   12   26 1 
    25    3    7 1 
    26   26    7 1 
    27   26   27 1 
    28    9   27 1 
    29    7   14 1 
    30    7   13 1 
    31   29    2 1 
@<TRIPOS>SUBSTRUCTURE
1 MOL         1
@<TRIPOS>MOLECULE
query molecule
   29    31     1     0     0
SMALL
NO_CHARGE

@<TRIPOS>ATOM
      1 C1        -21.2598    0.4377   16.2735 C.ar      1 MOL     0.0780
      2 O1        -20.7019    0.4523   17.5200 O.3       1 MOL    -0.3605
      3 O2        -20.2192    0.1970   12.8265 O.3       1 MOL    -0.3392
      4 C2        -22.6397    0.5220   16.1578 C.ar      1 MOL     0.0376
      5 C3        -23.2219    0.5060   14.9016 C.ar      1 MOL    -0.0372
      6 C5        -20.4412    0.3283   15.1305 C.ar      1 MOL     0.0200
      7 C6        -18.7930   -0.1447   12.8737 C.3       1 MOL     0.0764
      8 C4        -22.3917    0.4431   13.7935 C.ar      1 MOL     0.0379
      9 C10       -16.3022    0.9468   15.2564 C.2       1 MOL     0.0030
     10 C11       -17.1780    1.5741   16.1415 C.2       1 MOL    -0.0365
     11 C12       -18.5695    1.4433   15.9814 C.3       1 MOL    -0.0105
     12 C13       -19.0416    0.2269   15.1484 C.3       1 MOL     0.0574
     13 C14       -18.1487    0.2267   11.5373 C.3       1 MOL     0.0431
     14 C15       -18.6188   -1.6461   13.1337 C.3       1 MOL     0.0431
     15 C16       -16.6710    2.3335   17.1914 C.3       1 MOL     0.0167
     16 C17       -24.6106    0.5742   14.7417 C.3       1 MOL    -0.0102
     17 C18       -25.1738    1.9586   15.0784 C.3       1 MOL     0.0110
     18 C19       -25.2768   -0.4464   15.6630 C.3       1 MOL     0.0159
     19 C20       -24.9573    0.2242   13.2966 C.3       1 MOL     0.0159
     20 C21       -26.4596    1.8456   15.9006 C.3       1 MOL     0.0009
     21 C22       -26.4030    2.8388   17.0637 C.3       1 MOL     0.0002
     22 C23       -25.2783    2.4354   18.0243 C.3       1 MOL     0.0009
     23 C24       -25.6362    1.1098   18.6989 C.3       1 MOL     0.0115
     24 C25       -24.3960    0.2205   18.8580 C.3       1 MOL     0.0805
     25 C7        -21.0580    0.1104   13.8848 C.ar      1 MOL     0.0824
     26 C8        -18.2720    0.6904   13.9272 C.3       1 MOL     0.0553
     27 C9        -16.8782    0.2038   14.2343 C.3       1 MOL    -0.0191
     28 BR1       -24.8617   -1.6578   19.0388 Br        1 MOL    -0.0928
     29 H1        -21.2990    0.0316   18.1426 H         1 MOL     0.2183
@<TRIPOS>BOND
     1   24   23 1 
     2   24   28 1 
     3   18   16 1 
     4   23   22 1 
     5   22   21 1 
     6   21   20 1 
     7   20   17 1 
     8   17   16 1 
     9   16   19 1 
    10   16    5 1 
    11    4    5 ar
    12    4    1 ar
    13    5    8 ar
    14    2    1 1 
    15    1    6 ar
    16    8   25 ar
    17    6   25 ar
    18    6   12 1 
    19   11   10 1 
    20   11   12 1 
    21   15   10 1 
    22   25    3 1 
    23   10    9 2 
    24   12   26 1 
    25    3    7 1 
    26   26    7 1 
    27   26   27 1 
    28    9   27 1 
    29    7   14 1 
    30    7   13 1 
    31   29    2 1 
@<TRIPOS>SUBSTRUCTURE
1 MOL         1
@<TRIPOS>MOLECULE
query molecule
   29    31     1     0     0
SMALL
NO_CHARGE

@<TRIPOS>ATOM
      1 C1        -24.6607   -0.8279   17.4781 C.ar      1 MOL     0.0780
      2 O1        -25.0436   -1.7432   18.4165 O.3       1 MOL    -0.3605
      3 O2        -21.6250    0.5036   16.0519 O.3       1 MOL    -0.3392
      4 C2        -25.6402   -0.1385   16.7783 C.ar      1 MOL     0.0376
      5 C3        -25.2693    0.7914   15.8216 C.ar      1 MOL    -0.0372
      6 C5        -23.2922   -0.6012   17.2244 C.ar      1 MOL     0.0200
      7 C6        -20.5476   -0.3519   16.5623 C.3       1 MOL     0.0764
      8 C4        -23.9180    1.0273   15.6238 C.ar      1 MOL     0.0379
      9 C10       -20.2735   -1.9173   19.8098 C.2       1 MOL     0.0030
     10 C11       -21.5557   -1.6028   20.2582 C.2       1 MOL    -0.0365
     11 C12       -22.5000   -1.0388   19.3811 C.3       1 MOL    -0.0105
     12 C13       -22.2333   -1.2562   17.8718 C.3       1 MOL     0.0574
     13 C14       -19.2209    0.4009   16.4515 C.3       1 MOL     0.0431
     14 C15       -20.4760   -1.6507   15.7499 C.3       1 MOL     0.0431
     15 C16       -21.9034   -1.8506   21.5825 C.3       1 MOL     0.0167
     16 C17       -26.2258    1.4976   15.0833 C.3       1 MOL    -0.0102
     17 C18       -25.6967    2.8393   14.5666 C.3       1 MOL     0.0110
     18 C19       -27.4424    1.7746   15.9651 C.3       1 MOL     0.0159
     19 C20       -26.6676    0.6384   13.9010 C.3       1 MOL     0.0159
     20 C21       -26.6331    3.4316   13.5109 C.3       1 MOL     0.0009
     21 C22       -27.3600    4.6411   14.1035 C.3       1 MOL     0.0002
     22 C23       -28.6522    4.8943   13.3184 C.3       1 MOL     0.0009
     23 C24       -29.7658    4.0018   13.8695 C.3       1 MOL     0.0115
     24 C25       -29.3571    2.5234   13.8300 C.3       1 MOL     0.0805
     25 C7        -22.9400    0.1913   16.1164 C.ar      1 MOL     0.0824
     26 C8        -20.8925   -0.5528   17.9477 C.3       1 MOL     0.0553
     27 C9        -19.9973   -1.6451   18.4764 C.3       1 MOL    -0.0191
     28 BR1       -29.7902    1.6905   12.1282 Br        1 MOL    -0.0928
     29 H1        -25.0922   -2.6131   18.0137 H         1 MOL     0.2183
@<TRIPOS>BOND
     1   24   23 1 
     2   24   28 1 
     3   18   16 1 
     4   23   22 1 
     5   22   21 1 
     6   21   20 1 
     7   20   17 1 
     8   17   16 1 
     9   16   19 1 
    10   16    5 1 
    11    4    5 ar
    12    4    1 ar
    13    5    8 ar
    14    2    1 1 
    15    1    6 ar
    16    8   25 ar
    17    6   25 ar
    18    6   12 1 
    19   11   10 1 
    20   11   12 1 
    21   15   10 1 
    22   25    3 1 
    23   10    9 2 
    24   12   26 1 
    25    3    7 1 
    26   26    7 1 
    27   26   27 1 
    28    9   27 1 
    29    7   14 1 
    30    7   13 1 
    31   29    2 1 
@<TRIPOS>SUBSTRUCTURE
1 MOL         1
@<TRIPOS>MOLECULE
query molecule
   29    31     1     0     0
SMALL
NO_CHARGE

@<TRIPOS>ATOM
      1 C1        -22.2714   -0.1419   14.9081 C.ar      1 MOL     0.0780
      2 O1        -22.5581    0.1212   13.5990 O.3       1 MOL    -0.3605
      3 O2        -19.4383   -0.0761   17.1424 O.3       1 MOL    -0.3392
      4 C2        -23.2958   -0.5577   15.7461 C.ar      1 MOL     0.0376
      5 C3        -23.0230   -0.8265   17.0768 C.ar      1 MOL    -0.0372
      6 C5        -20.9571    0.0185   15.3933 C.ar      1 MOL     0.0200
      7 C6        -18.3674    0.5908   16.3930 C.3       1 MOL     0.0764
      8 C4        -21.7144   -0.7041   17.5168 C.ar      1 MOL     0.0379
      9 C10       -17.6494    0.3984   12.8547 C.2       1 MOL     0.0030
     10 C11       -18.7953   -0.3060   12.4874 C.2       1 MOL    -0.0365
     11 C12       -19.8287   -0.5221   13.4172 C.3       1 MOL    -0.0105
     12 C13       -19.8614    0.4438   14.6265 C.3       1 MOL     0.0574
     13 C14       -17.0208    0.2237   17.0181 C.3       1 MOL     0.0431
     14 C15       -18.5617    2.1115   16.4363 C.3       1 MOL     0.0431
     15 C16       -18.9174   -0.7968   11.1911 C.3       1 MOL     0.0167
     16 C17       -24.0304   -1.2341   17.9587 C.3       1 MOL    -0.0102
     17 C18       -23.4802   -1.9998   19.1663 C.3       1 MOL     0.0110
     18 C19       -25.0084   -2.1481   17.2222 C.3       1 MOL     0.0159
     19 C20       -24.7885   -0.0008   18.4437 C.3       1 MOL     0.0159
     20 C21       -24.5905   -2.7735   19.8809 C.3       1 MOL     0.0009
     21 C22       -24.9665   -2.0399   21.1704 C.3       1 MOL     0.0002
     22 C23       -24.3223   -2.7495   22.3670 C.3       1 MOL     0.0009
     23 C24       -22.8279   -2.4245   22.4074 C.3       1 MOL     0.0115
     24 C25       -22.5965   -0.9164   22.5692 C.3       1 MOL     0.0805
     25 C7        -20.7424   -0.0621   16.7814 C.ar      1 MOL     0.0824
     26 C8        -18.4714    0.0305   15.0686 C.3       1 MOL     0.0553
     27 C9        -17.5969    0.8606   14.1631 C.3       1 MOL    -0.0191
     28 BR1       -21.9179   -0.1020   20.9401 Br        1 MOL    -0.0928
     29 H1        -22.9920    0.9747   13.5320 H         1 MOL     0.2183
@<TRIPOS>BOND
     1   24   23 1 
     2   24   28 1 
     3   18   16 1 
     4   23   22 1 
     5   22   21 1 
     6   21   20 1 
     7   20   17 1 
     8   17   16 1 
     9   16   19 1 
    10   16    5 1 
    11    4    5 ar
    12    4    1 ar
    13    5    8 ar
    14    2    1 1 
    15    1    6 ar
    16    8   25 ar
    17    6   25 ar
    18    6   12 1 
    19   11   10 1 
    20   11   12 1 
    21   15   10 1 
    22   25    3 1 
    23   10    9 2 
    24   12   26 1 
    25    3    7 1 
    26   26    7 1 
    27   26   27 1 
    28    9   27 1 
    29    7   14 1 
    30    7   13 1 
    31   29    2 1 
@<TRIPOS>SUBSTRUCTURE
1 MOL         1
@<TRIPOS>MOLECULE
query molecule
   29    31     1     0     0
SMALL
NO_CHARGE

@<TRIPOS>ATOM
      1 C1        -24.4829    1.8846   17.1698 C.ar      1 MOL     0.0780
      2 O1        -24.5588    3.2246   17.4223 O.3       1 MOL    -0.3605
      3 O2        -25.5536   -0.4795   14.6624 O.3       1 MOL    -0.3392
      4 C2        -23.8034    1.0730   18.0666 C.ar      1 MOL     0.0376
      5 C3        -23.7148   -0.2875   17.8245 C.ar      1 MOL    -0.0372
      6 C5        -25.0784    1.3456   16.0108 C.ar      1 MOL     0.0200
      7 C6        -26.0651    0.3344   13.5538 C.3       1 MOL     0.0764
      8 C4        -24.3473   -0.7976   16.7017 C.ar      1 MOL     0.0379
      9 C10       -27.8621    3.4677   13.7136 C.2       1 MOL     0.0030
     10 C11       -27.7031    3.6845   15.0818 C.2       1 MOL    -0.0365
     11 C12       -26.8527    2.8600   15.8408 C.3       1 MOL    -0.0105
     12 C13       -25.7744    2.0866   15.0435 C.3       1 MOL     0.0574
     13 C14       -26.9890   -0.5262   12.6908 C.3       1 MOL     0.0431
     14 C15       -24.9012    0.8584   12.7036 C.3       1 MOL     0.0431
     15 C16       -28.3896    4.7252   15.6995 C.3       1 MOL     0.0167
     16 C17       -23.0263   -1.1389   18.6963 C.3       1 MOL    -0.0102
     17 C18       -21.5054   -1.0136   18.5613 C.3       1 MOL     0.0110
     18 C19       -23.4118   -2.5871   18.3988 C.3       1 MOL     0.0159
     19 C20       -23.4361   -0.8112   20.1300 C.3       1 MOL     0.0159
     20 C21       -20.9393   -2.1141   17.6610 C.3       1 MOL     0.0009
     21 C22       -20.1081   -1.4752   16.5460 C.3       1 MOL     0.0002
     22 C23       -21.0308   -0.6833   15.6122 C.3       1 MOL     0.0009
     23 C24       -20.3575   -0.5222   14.2479 C.3       1 MOL     0.0115
     24 C25       -19.3091    0.5976   14.2801 C.3       1 MOL     0.0805
     25 C7        -24.8057    0.0054   15.6805 C.ar      1 MOL     0.0824
     26 C8        -26.8197    1.3744   14.2077 C.3       1 MOL     0.0553
     27 C9        -27.1448    2.4132   13.1641 C.3       1 MOL    -0.0191
     28 BR1       -18.1676    0.5757   12.7071 Br        1 MOL    -0.0928
     29 H1        -24.4040    3.7124   16.6104 H         1 MOL     0.2183
@<TRIPOS>BOND
     1   24   23 1 
     2   24   28 1 
     3   18   16 1 
     4   23   22 1 
     5   22   21 1 
     6   21   20 1 
     7   20   17 1 
     8   17   16 1 
     9   16   19 1 
    10   16    5 1 
    11    4    5 ar
    12    4    1 ar
    13    5    8 ar
    14    2    1 1 
    15    1    6 ar
    16    8   25 ar
    17    6   25 ar
    18    6   12 1 
    19   11   10 1 
    20   11   12 1 
    21   15   10 1 
    22   25    3 1 
    23   10    9 2 
    24   12   26 1 
    25    3    7 1 
    26   26    7 1 
    27   26   27 1 
    28    9   27 1 
    29    7   14 1 
    30    7   13 1 
    31   29    2 1 
@<TRIPOS>SUBSTRUCTURE
1 MOL         1
@<TRIPOS>MOLECULE
query molecule
   29    31     1     0     0
SMALL
NO_CHARGE

@<TRIPOS>ATOM
      1 C1        -22.8278   -0.0462   16.1295 C.ar      1 MOL     0.0780
      2 O1        -21.6709   -0.3751   15.4827 O.3       1 MOL    -0.3605
      3 O2        -24.3371   -0.4443   19.3832 O.3       1 MOL    -0.3392
      4 C2        -23.7968    0.6709   15.4428 C.ar      1 MOL     0.0376
      5 C3        -24.9747    1.0148   16.0844 C.ar      1 MOL    -0.0372
      6 C5        -23.0215   -0.4238   17.4743 C.ar      1 MOL     0.0200
      7 C6        -23.2735   -0.9764   20.2428 C.3       1 MOL     0.0764
      8 C4        -25.1582    0.5925   17.3917 C.ar      1 MOL     0.0379
      9 C10       -20.6348   -3.2908   19.3751 C.2       1 MOL     0.0030
     10 C11       -20.8684   -3.3065   18.0006 C.2       1 MOL    -0.0365
     11 C12       -21.7812   -2.4060   17.4217 C.3       1 MOL    -0.0105
     12 C13       -22.0971   -1.1381   18.2518 C.3       1 MOL     0.0574
     13 C14       -23.9090   -1.6498   21.4600 C.3       1 MOL     0.0431
     14 C15       -22.3493    0.1582   20.7017 C.3       1 MOL     0.0431
     15 C16       -20.1921   -4.2186   17.1964 C.3       1 MOL     0.0167
     16 C17       -25.9712    1.7501   15.4324 C.3       1 MOL    -0.0102
     17 C18       -25.4470    3.0700   14.8578 C.3       1 MOL     0.0110
     18 C19       -27.0901    2.0737   16.4211 C.3       1 MOL     0.0159
     19 C20       -26.5502    0.9008   14.3034 C.3       1 MOL     0.0159
     20 C21       -26.3972    3.6240   13.7937 C.3       1 MOL     0.0009
     21 C22       -27.1456    4.8305   14.3653 C.3       1 MOL     0.0002
     22 C23       -28.5702    4.8615   13.7997 C.3       1 MOL     0.0009
     23 C24       -29.3279    3.6147   14.2602 C.3       1 MOL     0.0115
     24 C25       -30.0815    2.9655   13.0920 C.3       1 MOL     0.0805
     25 C7        -24.1271    0.1058   18.1648 C.ar      1 MOL     0.0824
     26 C8        -22.6188   -1.9586   19.4150 C.3       1 MOL     0.0553
     27 C9        -21.3427   -2.3529   20.1151 C.3       1 MOL    -0.0191
     28 BR1       -29.7882    1.0459   13.0094 Br        1 MOL    -0.0928
     29 H1        -21.2793    0.4158   15.1055 H         1 MOL     0.2183
@<TRIPOS>BOND
     1   24   23 1 
     2   24   28 1 
     3   18   16 1 
     4   23   22 1 
     5   22   21 1 
     6   21   20 1 
     7   20   17 1 
     8   17   16 1 
     9   16   19 1 
    10   16    5 1 
    11    4    5 ar
    12    4    1 ar
    13    5    8 ar
    14    2    1 1 
    15    1    6 ar
    16    8   25 ar
    17    6   25 ar
    18    6   12 1 
    19   11   10 1 
    20   11   12 1 
    21   15   10 1 
    22   25    3 1 
    23   10    9 2 
    24   12   26 1 
    25    3    7 1 
    26   26    7 1 
    27   26   27 1 
    28    9   27 1 
    29    7   14 1 
    30    7   13 1 
    31   29    2 1 
@<TRIPOS>SUBSTRUCTURE
1 MOL         1
@<TRIPOS>MOLECULE
query molecule
   29    31     1     0     0
SMALL
NO_CHARGE

@<TRIPOS>ATOM
      1 C1        -24.3079    0.5086   18.6896 C.ar      1 MOL     0.0780
      2 O1        -25.2143    1.5247   18.7944 O.3       1 MOL    -0.3605
      3 O2        -22.4139   -1.1992   16.1364 O.3       1 MOL    -0.3392
      4 C2        -23.8957   -0.1411   19.8440 C.ar      1 MOL     0.0376
      5 C3        -22.9754   -1.1719   19.7559 C.ar      1 MOL    -0.0372
      6 C5        -23.7975    0.1397   17.4278 C.ar      1 MOL     0.0200
      7 C6        -22.6055   -0.4082   14.9154 C.3       1 MOL     0.0764
      8 C4        -22.5240   -1.5440   18.4995 C.ar      1 MOL     0.0379
      9 C10       -25.5616    1.3722   13.8364 C.2       1 MOL     0.0030
     10 C11       -26.2947    1.2110   15.0114 C.2       1 MOL    -0.0365
     11 C12       -25.6908    0.6689   16.1606 C.3       1 MOL    -0.0105
     12 C13       -24.1453    0.7439   16.2100 C.3       1 MOL     0.0574
     13 C14       -22.2930   -1.2845   13.7016 C.3       1 MOL     0.0431
     14 C15       -21.6766    0.8121   14.9266 C.3       1 MOL     0.0431
     15 C16       -27.6328    1.5910   15.0471 C.3       1 MOL     0.0167
     16 C17       -22.5226   -1.8433   20.8974 C.3       1 MOL    -0.0102
     17 C18       -23.4771   -2.9560   21.3425 C.3       1 MOL     0.0110
     18 C19       -22.3839   -0.8480   22.0483 C.3       1 MOL     0.0159
     19 C20       -21.1490   -2.4418   20.6039 C.3       1 MOL     0.0159
     20 C21       -24.2393   -2.5551   22.6076 C.3       1 MOL     0.0009
     21 C22       -25.7434   -2.6353   22.3364 C.3       1 MOL     0.0002
     22 C23       -26.4181   -1.3464   22.8201 C.3       1 MOL     0.0009
     23 C24       -27.2562   -1.6465   24.0644 C.3       1 MOL     0.0115
     24 C25       -28.2867   -0.5378   24.3148 C.3       1 MOL     0.0805
     25 C7        -22.7208   -0.7648   17.3806 C.ar      1 MOL     0.0824
     26 C8        -24.0069   -0.0703   14.9386 C.3       1 MOL     0.0553
     27 C9        -24.2318    0.9738   13.8741 C.3       1 MOL    -0.0191
     28 BR1       -27.5427    0.9323   25.3459 Br        1 MOL    -0.0928
     29 H1        -25.9765    1.2232   19.2938 H         1 MOL     0.2183
@<TRIPOS>BOND
     1   24   23 1 
     2   24   28 1 
     3   18   16 1 
     4   23   22 1 
     5   22   21 1 
     6   21   20 1 
     7   20   17 1 
     8   17   16 1 
     9   16   19 1 
    10   16    5 1 
    11    4    5 ar
    12    4    1 ar
    13    5    8 ar
    14    2    1 1 
    15    1    6 ar
    16    8   25 ar
    17    6   25 ar
    18    6   12 1 
    19   11   10 1 
    20   11   12 1 
    21   15   10 1 
    22   25    3 1 
    23   10    9 2 
    24   12   26 1 
    25    3    7 1 
    26   26    7 1 
    27   26   27 1 
    28    9   27 1 
    29    7   14 1 
    30    7   13 1 
    31   29    2 1 
@<TRIPOS>SUBSTRUCTURE
1 MOL         1
@<TRIPOS>MOLECULE
query molecule
   29    31     1     0     0
SMALL
NO_CHARGE

@<TRIPOS>ATOM
      1 C1        -36.3245    9.6907   16.8256 C.ar      1 MOL     0.0780
      2 O1        -37.2430    9.7237   17.8358 O.3       1 MOL    -0.3605
      3 O2        -32.9762   10.8545   16.1498 O.3       1 MOL    -0.3392
      4 C2        -36.6474    9.0285   15.6501 C.ar      1 MOL     0.0376
      5 C3        -35.7268    8.9833   14.6168 C.ar      1 MOL    -0.0372
      6 C5        -35.0691   10.3125   16.9868 C.ar      1 MOL     0.0200
      7 C6        -32.4701   11.3507   17.4346 C.3       1 MOL     0.0764
      8 C4        -34.5182    9.6407   14.7844 C.ar      1 MOL     0.0379
      9 C10       -34.2889   13.0503   20.0568 C.2       1 MOL     0.0030
     10 C11       -35.5639   12.8729   19.5210 C.2       1 MOL    -0.0365
     11 C12       -35.7587   12.0414   18.4031 C.3       1 MOL    -0.0105
     12 C13       -34.6496   10.9940   18.1395 C.3       1 MOL     0.0574
     13 C14       -31.3061   12.3078   17.1738 C.3       1 MOL     0.0431
     14 C15       -31.9934   10.1789   18.3016 C.3       1 MOL     0.0431
     15 C16       -36.6509   13.5221   20.0979 C.3       1 MOL     0.0167
     16 C17       -36.0073    8.3134   13.4204 C.3       1 MOL    -0.0102
     17 C18       -37.4541    8.5153   12.9589 C.3       1 MOL     0.0110
     18 C19       -35.7747    6.8156   13.6126 C.3       1 MOL     0.0159
     19 C20       -35.0555    8.8185   12.3387 C.3       1 MOL     0.0159
     20 C21       -37.6347    9.8810   12.2924 C.3       1 MOL     0.0009
     21 C22       -37.9926   10.9188   13.3588 C.3       1 MOL     0.0002
     22 C23       -36.9109   12.0046   13.3970 C.3       1 MOL     0.0009
     23 C24       -36.6904   12.4528   14.8430 C.3       1 MOL     0.0115
     24 C25       -36.8610   13.9713   14.9810 C.3       1 MOL     0.0805
     25 C7        -34.0797   10.0834   16.0131 C.ar      1 MOL     0.0824
     26 C8        -33.5892   12.0676   17.9934 C.3       1 MOL     0.0553
     27 C9        -33.2521   12.3702   19.4317 C.3       1 MOL    -0.0191
     28 BR1       -37.9662   14.4471   16.5073 Br        1 MOL    -0.0928
     29 H1        -37.6390    8.8553   17.9365 H         1 MOL     0.2183
@<TRIPOS>BOND
     1   24   23 1 
     2   24   28 1 
     3   18   16 1 
     4   23   22 1 
     5   22   21 1 
     6   21   20 1 
     7   20   17 1 
     8   17   16 1 
     9   16   19 1 
    10   16    5 1 
    11    4    5 ar
    12    4    1 ar
    13    5    8 ar
    14    2    1 1 
    15    1    6 ar
    16    8   25 ar
    17    6   25 ar
    18    6   12 1 
    19   11   10 1 
    20   11   12 1 
    21   15   10 1 
    22   25    3 1 
    23   10    9 2 
    24   12   26 1 
    25    3    7 1 
    26   26    7 1 
    27   26   27 1 
    28    9   27 1 
    29    7   14 1 
    30    7   13 1 
    31   29    2 1 
@<TRIPOS>SUBSTRUCTURE
1 MOL         1
@<TRIPOS>MOLECULE
query molecule
   29    31     1     0     0
SMALL
NO_CHARGE

@<TRIPOS>ATOM
      1 C1        -23.2816   -0.1987   18.3787 C.ar      1 MOL     0.0780
      2 O1        -24.3369    0.5928   18.0254 O.3       1 MOL    -0.3605
      3 O2        -20.1484   -1.3375   16.9970 O.3       1 MOL    -0.3392
      4 C2        -23.2854   -0.7984   19.6297 C.ar      1 MOL     0.0376
      5 C3        -22.2220   -1.6022   20.0049 C.ar      1 MOL    -0.0372
      6 C5        -22.2069   -0.3895   17.4859 C.ar      1 MOL     0.0200
      7 C6        -19.9531   -0.5494   15.7748 C.3       1 MOL     0.0764
      8 C4        -21.2005   -1.8089   19.0913 C.ar      1 MOL     0.0379
      9 C10       -22.4481    0.6032   13.4256 C.2       1 MOL     0.0030
     10 C11       -23.5666    0.2332   14.1713 C.2       1 MOL    -0.0365
     11 C12       -23.4233   -0.2201   15.4954 C.3       1 MOL    -0.0105
     12 C13       -22.1095    0.1827   16.2082 C.3       1 MOL     0.0574
     13 C14       -18.9638   -1.2799   14.8656 C.3       1 MOL     0.0431
     14 C15       -19.4063    0.8401   16.1251 C.3       1 MOL     0.0431
     15 C16       -24.8333    0.3147   13.6014 C.3       1 MOL     0.0167
     16 C17       -22.1800   -2.2137   21.2631 C.3       1 MOL    -0.0102
     17 C18       -23.4526   -3.0082   21.5734 C.3       1 MOL     0.0110
     18 C19       -22.0137   -1.1433   22.3406 C.3       1 MOL     0.0159
     19 C20       -20.9739   -3.1484   21.3159 C.3       1 MOL     0.0159
     20 C21       -24.2038   -2.4038   22.7619 C.3       1 MOL     0.0009
     21 C22       -25.7102   -2.5138   22.5146 C.3       1 MOL     0.0002
     22 C23       -26.4219   -1.3213   23.1642 C.3       1 MOL     0.0009
     23 C24       -27.5146   -1.8318   24.1055 C.3       1 MOL     0.0115
     24 C25       -28.6187   -0.7822   24.2882 C.3       1 MOL     0.0805
     25 C7        -21.0516   -1.0383   17.9592 C.ar      1 MOL     0.0824
     26 C8        -21.2607   -0.5219   15.1683 C.3       1 MOL     0.0553
     27 C9        -21.2167    0.4985   14.0589 C.3       1 MOL    -0.0191
     28 BR1       -27.8945    0.9868   24.6402 Br        1 MOL    -0.0928
     29 H1        -25.1447    0.2353   18.4007 H         1 MOL     0.2183
@<TRIPOS>BOND
     1   24   23 1 
     2   24   28 1 
     3   18   16 1 
     4   23   22 1 
     5   22   21 1 
     6   21   20 1 
     7   20   17 1 
     8   17   16 1 
     9   16   19 1 
    10   16    5 1 
    11    4    5 ar
    12    4    1 ar
    13    5    8 ar
    14    2    1 1 
    15    1    6 ar
    16    8   25 ar
    17    6   25 ar
    18    6   12 1 
    19   11   10 1 
    20   11   12 1 
    21   15   10 1 
    22   25    3 1 
    23   10    9 2 
    24   12   26 1 
    25    3    7 1 
    26   26    7 1 
    27   26   27 1 
    28    9   27 1 
    29    7   14 1 
    30    7   13 1 
    31   29    2 1 
@<TRIPOS>SUBSTRUCTURE
1 MOL         1
@<TRIPOS>MOLECULE
query molecule
   29    31     1     0     0
SMALL
NO_CHARGE

@<TRIPOS>ATOM
      1 C1        -36.7881   11.2321   16.6436 C.ar      1 MOL     0.0780
      2 O1        -37.6298   10.3237   16.0679 O.3       1 MOL    -0.3605
      3 O2        -33.5887   12.7715   15.9980 O.3       1 MOL    -0.3392
      4 C2        -37.1650   11.8293   17.8377 C.ar      1 MOL     0.0376
      5 C3        -36.3245   12.7544   18.4337 C.ar      1 MOL    -0.0372
      6 C5        -35.5646   11.5590   16.0233 C.ar      1 MOL     0.0200
      7 C6        -33.2373   12.3786   14.6286 C.3       1 MOL     0.0764
      8 C4        -35.1081   13.0239   17.8264 C.ar      1 MOL     0.0379
      9 C10       -33.9081    9.2468   12.9511 C.2       1 MOL     0.0030
     10 C11       -34.7330    8.7015   13.9340 C.2       1 MOL    -0.0365
     11 C12       -35.1604    9.4844   15.0218 C.3       1 MOL    -0.0105
     12 C13       -35.1046   11.0173   14.8132 C.3       1 MOL     0.0574
     13 C14       -31.7272   12.5311   14.4401 C.3       1 MOL     0.0431
     14 C15       -33.9777   13.2647   13.6193 C.3       1 MOL     0.0431
     15 C16       -35.1372    7.3736   13.8364 C.3       1 MOL     0.0167
     16 C17       -36.6735   13.3904   19.6305 C.3       1 MOL    -0.0102
     17 C18       -36.7507   12.4182   20.8121 C.3       1 MOL     0.0110
     18 C19       -38.0406   14.0536   19.4711 C.3       1 MOL     0.0159
     19 C20       -35.6400   14.4729   19.9321 C.3       1 MOL     0.0159
     20 C21       -35.8809   11.1830   20.5674 C.3       1 MOL     0.0009
     21 C22       -34.7084   11.1893   21.5511 C.3       1 MOL     0.0002
     22 C23       -33.5197   10.4448   20.9322 C.3       1 MOL     0.0009
     23 C24       -32.8849   11.3140   19.8450 C.3       1 MOL     0.0115
     24 C25       -32.7973   10.5551   18.5144 C.3       1 MOL     0.0805
     25 C7        -34.8245   12.6413   16.5337 C.ar      1 MOL     0.0824
     26 C8        -33.6099   10.9874   14.5616 C.3       1 MOL     0.0553
     27 C9        -33.5463   10.5778   13.1117 C.3       1 MOL    -0.0191
     28 BR1       -31.1059    9.6182   18.3172 Br        1 MOL    -0.0928
     29 H1        -37.8702    9.6561   16.7142 H         1 MOL     0.2183
@<TRIPOS>BOND
     1   24   23 1 
     2   24   28 1 
     3   18   16 1 
     4   23   22 1 
     5   22   21 1 
     6   21   20 1 
     7   20   17 1 
     8   17   16 1 
     9   16   19 1 
    10   16    5 1 
    11    4    5 ar
    12    4    1 ar
    13    5    8 ar
    14    2    1 1 
    15    1    6 ar
    16    8   25 ar
    17    6   25 ar
    18    6   12 1 
    19   11   10 1 
    20   11   12 1 
    21   15   10 1 
    22   25    3 1 
    23   10    9 2 
    24   12   26 1 
    25    3    7 1 
    26   26    7 1 
    27   26   27 1 
    28    9   27 1 
    29    7   14 1 
    30    7   13 1 
    31   29    2 1 
@<TRIPOS>SUBSTRUCTURE
1 MOL         1
@<TRIPOS>MOLECULE
query molecule
   29    31     1     0     0
SMALL
NO_CHARGE

@<TRIPOS>ATOM
      1 C1        -22.0838   -2.2120   17.6379 C.ar      1 MOL     0.0780
      2 O1        -21.5710   -3.0214   16.6648 O.3       1 MOL    -0.3605
      3 O2        -23.9819    0.8444   17.9180 O.3       1 MOL    -0.3392
      4 C2        -21.8998   -2.5655   18.9668 C.ar      1 MOL     0.0376
      5 C3        -22.4154   -1.7573   19.9660 C.ar      1 MOL    -0.0372
      6 C5        -22.7949   -1.0452   17.2893 C.ar      1 MOL     0.0200
      7 C6        -24.4296    1.1504   16.5546 C.3       1 MOL     0.0764
      8 C4        -23.0710   -0.5934   19.5968 C.ar      1 MOL     0.0379
      9 C10       -22.6770    0.5990   13.4406 C.2       1 MOL     0.0030
     10 C11       -21.6185   -0.1380   13.9703 C.2       1 MOL    -0.0365
     11 C12       -21.6435   -0.5593   15.3123 C.3       1 MOL    -0.0105
     12 C13       -23.0405   -0.6133   15.9769 C.3       1 MOL     0.0574
     13 C14       -24.7833    2.6359   16.4696 C.3       1 MOL     0.0431
     14 C15       -25.6587    0.3040   16.2007 C.3       1 MOL     0.0431
     15 C16       -20.5310   -0.4600   13.1643 C.3       1 MOL     0.0167
     16 C17       -22.2647   -2.0855   21.3182 C.3       1 MOL    -0.0102
     17 C18       -23.2963   -3.1143   21.7921 C.3       1 MOL     0.0110
     18 C19       -22.4272   -0.8248   22.1660 C.3       1 MOL     0.0159
     19 C20       -20.8591   -2.6403   21.5362 C.3       1 MOL     0.0159
     20 C21       -24.0531   -2.6095   23.0227 C.3       1 MOL     0.0009
     21 C22       -25.5583   -2.7052   22.7630 C.3       1 MOL     0.0002
     22 C23       -26.2844   -1.6207   23.5675 C.3       1 MOL     0.0009
     23 C24       -27.7158   -2.0756   23.8587 C.3       1 MOL     0.0115
     24 C25       -28.6688   -0.8760   23.9417 C.3       1 MOL     0.0805
     25 C7        -23.4800   -0.3516   18.3037 C.ar      1 MOL     0.0824
     26 C8        -23.2752    0.8655   15.7393 C.3       1 MOL     0.0553
     27 C9        -23.7294    0.8817   14.3015 C.3       1 MOL    -0.0191
     28 BR1       -27.9000    0.6003   24.9452 Br        1 MOL    -0.0928
     29 H1        -21.5849   -3.9324   16.9664 H         1 MOL     0.2183
@<TRIPOS>BOND
     1   24   23 1 
     2   24   28 1 
     3   18   16 1 
     4   23   22 1 
     5   22   21 1 
     6   21   20 1 
     7   20   17 1 
     8   17   16 1 
     9   16   19 1 
    10   16    5 1 
    11    4    5 ar
    12    4    1 ar
    13    5    8 ar
    14    2    1 1 
    15    1    6 ar
    16    8   25 ar
    17    6   25 ar
    18    6   12 1 
    19   11   10 1 
    20   11   12 1 
    21   15   10 1 
    22   25    3 1 
    23   10    9 2 
    24   12   26 1 
    25    3    7 1 
    26   26    7 1 
    27   26   27 1 
    28    9   27 1 
    29    7   14 1 
    30    7   13 1 
    31   29    2 1 
@<TRIPOS>SUBSTRUCTURE
1 MOL         1
@<TRIPOS>MOLECULE
query molecule
   29    31     1     0     0
SMALL
NO_CHARGE

@<TRIPOS>ATOM
      1 C1        -37.0712   10.0780   16.9089 C.ar      1 MOL     0.0780
      2 O1        -38.0332    9.1967   17.3125 O.3       1 MOL    -0.3605
      3 O2        -34.6647   10.4524   14.2460 O.3       1 MOL    -0.3392
      4 C2        -36.8627   11.2281   17.6562 C.ar      1 MOL     0.0376
      5 C3        -35.8929   12.1335   17.2598 C.ar      1 MOL    -0.0372
      6 C5        -36.3151    9.8208   15.7467 C.ar      1 MOL     0.0200
      7 C6        -34.9910    9.4006   13.2762 C.3       1 MOL     0.0764
      8 C4        -35.1337   11.8345   16.1395 C.ar      1 MOL     0.0379
      9 C10       -36.2064    6.0564   13.9173 C.2       1 MOL     0.0030
     10 C11       -36.4273    6.2157   15.2848 C.2       1 MOL    -0.0365
     11 C12       -36.3244    7.4858   15.8810 C.3       1 MOL    -0.0105
     12 C13       -36.4617    8.6941   14.9231 C.3       1 MOL     0.0574
     13 C14       -33.7672    9.1385   12.3972 C.3       1 MOL     0.0431
     14 C15       -36.1730    9.8377   12.4022 C.3       1 MOL     0.0431
     15 C16       -36.7535    5.1102   16.0642 C.3       1 MOL     0.0167
     16 C17       -35.6609   13.3126   17.9771 C.3       1 MOL    -0.0102
     17 C18       -35.0289   13.0520   19.3482 C.3       1 MOL     0.0110
     18 C19       -36.9860   14.0411   18.1957 C.3       1 MOL     0.0159
     19 C20       -34.7399   14.2138   17.1581 C.3       1 MOL     0.0159
     20 C21       -34.3034   11.7047   19.3737 C.3       1 MOL     0.0009
     21 C22       -33.3408   11.6731   20.5631 C.3       1 MOL     0.0002
     22 C23       -34.0891   12.0870   21.8356 C.3       1 MOL     0.0009
     23 C24       -35.2349   11.1066   22.0940 C.3       1 MOL     0.0115
     24 C25       -36.4218   11.8111   22.7641 C.3       1 MOL     0.0805
     25 C7        -35.4831   10.8414   15.2510 C.ar      1 MOL     0.0824
     26 C8        -35.2714    8.2487   14.0966 C.3       1 MOL     0.0553
     27 C9        -35.8874    7.2029   13.2017 C.3       1 MOL    -0.0191
     28 BR1       -38.0180   11.7677   21.6561 Br        1 MOL    -0.0928
     29 H1        -37.6677    8.6048   17.9738 H         1 MOL     0.2183
@<TRIPOS>BOND
     1   24   23 1 
     2   24   28 1 
     3   18   16 1 
     4   23   22 1 
     5   22   21 1 
     6   21   20 1 
     7   20   17 1 
     8   17   16 1 
     9   16   19 1 
    10   16    5 1 
    11    4    5 ar
    12    4    1 ar
    13    5    8 ar
    14    2    1 1 
    15    1    6 ar
    16    8   25 ar
    17    6   25 ar
    18    6   12 1 
    19   11   10 1 
    20   11   12 1 
    21   15   10 1 
    22   25    3 1 
    23   10    9 2 
    24   12   26 1 
    25    3    7 1 
    26   26    7 1 
    27   26   27 1 
    28    9   27 1 
    29    7   14 1 
    30    7   13 1 
    31   29    2 1 
@<TRIPOS>SUBSTRUCTURE
1 MOL         1
@<TRIPOS>MOLECULE
query molecule
   29    31     1     0     0
SMALL
NO_CHARGE

@<TRIPOS>ATOM
      1 C1        -36.7147   11.1836   16.9596 C.ar      1 MOL     0.0780
      2 O1        -37.5809   10.2745   16.4226 O.3       1 MOL    -0.3605
      3 O2        -33.5014   12.6501   16.2204 O.3       1 MOL    -0.3392
      4 C2        -37.0615   11.8190   18.1430 C.ar      1 MOL     0.0376
      5 C3        -36.1959   12.7453   18.6998 C.ar      1 MOL    -0.0372
      6 C5        -35.4964   11.4727   16.3108 C.ar      1 MOL     0.0200
      7 C6        -33.1795   12.2145   14.8566 C.3       1 MOL     0.0764
      8 C4        -34.9856   12.9776   18.0657 C.ar      1 MOL     0.0379
      9 C10       -33.9303    9.0507   13.2760 C.2       1 MOL     0.0030
     10 C11       -34.7476    8.5461   14.2867 C.2       1 MOL    -0.0365
     11 C12       -35.1437    9.3653   15.3596 C.3       1 MOL    -0.0105
     12 C13       -35.0659   10.8908   15.1086 C.3       1 MOL     0.0574
     13 C14       -31.6705   12.3361   14.6395 C.3       1 MOL     0.0431
     14 C15       -33.9219   13.0857   13.8358 C.3       1 MOL     0.0431
     15 C16       -35.1755    7.2233   14.2318 C.3       1 MOL     0.0167
     16 C17       -36.5142   13.4192   19.8845 C.3       1 MOL    -0.0102
     17 C18       -36.6397   12.4735   21.0833 C.3       1 MOL     0.0110
     18 C19       -37.8472   14.1455   19.7110 C.3       1 MOL     0.0159
     19 C20       -35.4292   14.4551   20.1681 C.3       1 MOL     0.0159
     20 C21       -35.7959   11.2128   20.8816 C.3       1 MOL     0.0009
     21 C22       -34.6835   11.1774   21.9322 C.3       1 MOL     0.0002
     22 C23       -35.0621   12.0877   23.1063 C.3       1 MOL     0.0009
     23 C24       -36.1060   11.3867   23.9778 C.3       1 MOL     0.0115
     24 C25       -36.1447   11.9938   25.3864 C.3       1 MOL     0.0805
     25 C7        -34.7300   12.5555   16.7795 C.ar      1 MOL     0.0824
     26 C8        -33.5763   10.8287   14.8335 C.3       1 MOL     0.0553
     27 C9        -33.5438   10.3792   13.3945 C.3       1 MOL    -0.0191
     28 BR1       -37.9455   12.0320   26.1167 Br        1 MOL    -0.0928
     29 H1        -38.0373    9.8117   17.1288 H         1 MOL     0.2183
@<TRIPOS>BOND
     1   24   23 1 
     2   24   28 1 
     3   18   16 1 
     4   23   22 1 
     5   22   21 1 
     6   21   20 1 
     7   20   17 1 
     8   17   16 1 
     9   16   19 1 
    10   16    5 1 
    11    4    5 ar
    12    4    1 ar
    13    5    8 ar
    14    2    1 1 
    15    1    6 ar
    16    8   25 ar
    17    6   25 ar
    18    6   12 1 
    19   11   10 1 
    20   11   12 1 
    21   15   10 1 
    22   25    3 1 
    23   10    9 2 
    24   12   26 1 
    25    3    7 1 
    26   26    7 1 
    27   26   27 1 
    28    9   27 1 
    29    7   14 1 
    30    7   13 1 
    31   29    2 1 
@<TRIPOS>SUBSTRUCTURE
1 MOL         1
@<TRIPOS>MOLECULE
query molecule
   29    31     1     0     0
SMALL
NO_CHARGE

@<TRIPOS>ATOM
      1 C1        -33.9685   12.2649   16.3569 C.ar      1 MOL     0.0780
      2 O1        -33.1092   13.3212   16.4612 O.3       1 MOL    -0.3605
      3 O2        -36.7151   10.7977   18.1806 O.3       1 MOL    -0.3392
      4 C2        -33.8698   11.4295   15.2537 C.ar      1 MOL     0.0376
      5 C3        -34.7349   10.3553   15.1311 C.ar      1 MOL    -0.0372
      6 C5        -34.9423   12.0408   17.3519 C.ar      1 MOL     0.0200
      7 C6        -37.0441   11.7655   19.2334 C.3       1 MOL     0.0764
      8 C4        -35.6525   10.1316   16.1453 C.ar      1 MOL     0.0379
      9 C10       -34.8000   13.8975   21.1018 C.2       1 MOL     0.0030
     10 C11       -33.6517   13.6275   20.3585 C.2       1 MOL    -0.0365
     11 C12       -33.7316   12.8846   19.1665 C.3       1 MOL    -0.0105
     12 C13       -35.1250   12.8355   18.4940 C.3       1 MOL     0.0574
     13 C14       -37.8117   11.0486   20.3450 C.3       1 MOL     0.0431
     14 C15       -37.9027   12.8987   18.6582 C.3       1 MOL     0.0431
     15 C16       -32.4185   14.0980   20.7989 C.3       1 MOL     0.0167
     16 C17       -34.6782    9.4972   14.0269 C.3       1 MOL    -0.0102
     17 C18       -36.0369    9.3357   13.3375 C.3       1 MOL     0.0110
     18 C19       -34.2098    8.1162   14.4827 C.3       1 MOL     0.0159
     19 C20       -33.6652   10.0486   13.0265 C.3       1 MOL     0.0159
     20 C21       -36.3574   10.5480   12.4601 C.3       1 MOL     0.0009
     21 C22       -36.5713   11.7731   13.3520 C.3       1 MOL     0.0002
     22 C23       -37.9480   12.3816   13.0608 C.3       1 MOL     0.0009
     23 C24       -37.9731   12.9224   11.6299 C.3       1 MOL     0.0115
     24 C25       -37.0347   14.1269   11.4798 C.3       1 MOL     0.0805
     25 C7        -35.9352   11.0737   17.1099 C.ar      1 MOL     0.0824
     26 C8        -35.7576   12.2011   19.7170 C.3       1 MOL     0.0553
     27 C9        -35.9956   13.3991   20.6014 C.3       1 MOL    -0.0191
     28 BR1       -36.4995   14.4110    9.6331 Br        1 MOL    -0.0928
     29 H1        -33.6047   14.1178   16.6640 H         1 MOL     0.2183
@<TRIPOS>BOND
     1   24   23 1 
     2   24   28 1 
     3   18   16 1 
     4   23   22 1 
     5   22   21 1 
     6   21   20 1 
     7   20   17 1 
     8   17   16 1 
     9   16   19 1 
    10   16    5 1 
    11    4    5 ar
    12    4    1 ar
    13    5    8 ar
    14    2    1 1 
    15    1    6 ar
    16    8   25 ar
    17    6   25 ar
    18    6   12 1 
    19   11   10 1 
    20   11   12 1 
    21   15   10 1 
    22   25    3 1 
    23   10    9 2 
    24   12   26 1 
    25    3    7 1 
    26   26    7 1 
    27   26   27 1 
    28    9   27 1 
    29    7   14 1 
    30    7   13 1 
    31   29    2 1 
@<TRIPOS>SUBSTRUCTURE
1 MOL         1
@<TRIPOS>MOLECULE
query molecule
   29    31     1     0     0
SMALL
NO_CHARGE

@<TRIPOS>ATOM
      1 C1        -34.5609   13.1252   16.6674 C.ar      1 MOL     0.0780
      2 O1        -33.4806   13.6611   16.0265 O.3       1 MOL    -0.3605
      3 O2        -37.0053   10.5174   16.1704 O.3       1 MOL    -0.3392
      4 C2        -34.9305   13.6420   17.9007 C.ar      1 MOL     0.0376
      5 C3        -36.0220   13.1087   18.5652 C.ar      1 MOL    -0.0372
      6 C5        -35.2760   12.0591   16.0837 C.ar      1 MOL     0.0200
      7 C6        -36.5342    9.7596   15.0055 C.3       1 MOL     0.0764
      8 C4        -36.7340   12.0919   17.9487 C.ar      1 MOL     0.0379
      9 C10       -34.8473   10.9969   12.0566 C.2       1 MOL     0.0030
     10 C11       -34.6470   12.3000   12.5103 C.2       1 MOL    -0.0365
     11 C12       -34.9299   12.6422   13.8452 C.3       1 MOL    -0.0105
     12 C13       -34.9714   11.4648   14.8495 C.3       1 MOL     0.0574
     13 C14       -37.7103    8.9869   14.4068 C.3       1 MOL     0.0431
     14 C15       -35.4304    8.7806   15.4246 C.3       1 MOL     0.0431
     15 C16       -34.1623   13.2679   11.6360 C.3       1 MOL     0.0167
     16 C17       -36.4191   13.5913   19.8175 C.3       1 MOL    -0.0102
     17 C18       -36.7646   12.4665   20.7985 C.3       1 MOL     0.0110
     18 C19       -37.6558   14.4730   19.6511 C.3       1 MOL     0.0159
     19 C20       -35.2909   14.4406   20.3979 C.3       1 MOL     0.0159
     20 C21       -35.8936   11.2326   20.5515 C.3       1 MOL     0.0009
     21 C22       -34.7181   11.2412   21.5315 C.3       1 MOL     0.0002
     22 C23       -33.5322   10.4929   20.9117 C.3       1 MOL     0.0009
     23 C24       -32.9168   11.3457   19.8005 C.3       1 MOL     0.0115
     24 C25       -32.7809   10.5418   18.5007 C.3       1 MOL     0.0805
     25 C7        -36.2481   11.4018   16.8600 C.ar      1 MOL     0.0824
     26 C8        -36.0879   10.7780   14.0878 C.3       1 MOL     0.0553
     27 C9        -35.3307   10.0834   12.9842 C.3       1 MOL    -0.0191
     28 BR1       -31.0187    9.7429   18.3163 Br        1 MOL    -0.0928
     29 H1        -32.8376   12.9704   15.8512 H         1 MOL     0.2183
@<TRIPOS>BOND
     1   24   23 1 
     2   24   28 1 
     3   18   16 1 
     4   23   22 1 
     5   22   21 1 
     6   21   20 1 
     7   20   17 1 
     8   17   16 1 
     9   16   19 1 
    10   16    5 1 
    11    4    5 ar
    12    4    1 ar
    13    5    8 ar
    14    2    1 1 
    15    1    6 ar
    16    8   25 ar
    17    6   25 ar
    18    6   12 1 
    19   11   10 1 
    20   11   12 1 
    21   15   10 1 
    22   25    3 1 
    23   10    9 2 
    24   12   26 1 
    25    3    7 1 
    26   26    7 1 
    27   26   27 1 
    28    9   27 1 
    29    7   14 1 
    30    7   13 1 
    31   29    2 1 
@<TRIPOS>SUBSTRUCTURE
1 MOL         1
@<TRIPOS>MOLECULE
query molecule
   29    31     1     0     0
SMALL
NO_CHARGE

@<TRIPOS>ATOM
      1 C1        -34.7229    9.5820   28.4475 C.ar      1 MOL     0.0780
      2 O1        -33.5096    9.5488   29.0736 O.3       1 MOL    -0.3605
      3 O2        -37.2182    7.2822   27.2199 O.3       1 MOL    -0.3392
      4 C2        -35.2857   10.8136   28.1457 C.ar      1 MOL     0.0376
      5 C3        -36.5165   10.8654   27.5132 C.ar      1 MOL    -0.0372
      6 C5        -35.3894    8.3815   28.1265 C.ar      1 MOL     0.0200
      7 C6        -36.8138    5.9645   27.7232 C.3       1 MOL     0.0764
      8 C4        -37.1288    9.6707   27.1687 C.ar      1 MOL     0.0379
      9 C10       -33.4704    4.6605   28.1636 C.2       1 MOL     0.0030
     10 C11       -32.7894    5.8490   27.9034 C.2       1 MOL    -0.0365
     11 C12       -33.4930    7.0598   27.7693 C.3       1 MOL    -0.0105
     12 C13       -34.9057    7.0931   28.4014 C.3       1 MOL     0.0574
     13 C14       -37.4746    4.8821   26.8684 C.3       1 MOL     0.0431
     14 C15       -37.2442    5.8041   29.1864 C.3       1 MOL     0.0431
     15 C16       -31.4038    5.8366   27.7774 C.3       1 MOL     0.0167
     16 C17       -37.1255   12.0870   27.2042 C.3       1 MOL    -0.0102
     17 C18       -36.1080   13.1890   26.8924 C.3       1 MOL     0.0110
     18 C19       -37.9725   12.5445   28.3907 C.3       1 MOL     0.0159
     19 C20       -38.0426   11.8889   25.9997 C.3       1 MOL     0.0159
     20 C21       -35.3124   12.8625   25.6264 C.3       1 MOL     0.0009
     21 C22       -36.1986   13.0948   24.4004 C.3       1 MOL     0.0002
     22 C23       -35.6967   12.2308   23.2376 C.3       1 MOL     0.0009
     23 C24       -36.0011   12.9334   21.9131 C.3       1 MOL     0.0115
     24 C25       -35.7896   11.9853   20.7255 C.3       1 MOL     0.0805
     25 C7        -36.7190    8.4557   27.6724 C.ar      1 MOL     0.0824
     26 C8        -35.3846    5.9458   27.5338 C.3       1 MOL     0.0553
     27 C9        -34.8515    4.7482   28.2792 C.3       1 MOL    -0.0191
     28 BR1       -33.9162   11.8435   20.2279 Br        1 MOL    -0.0928
     29 H1        -33.1851   10.4446   29.1899 H         1 MOL     0.2183
@<TRIPOS>BOND
     1   24   23 1 
     2   24   28 1 
     3   18   16 1 
     4   23   22 1 
     5   22   21 1 
     6   21   20 1 
     7   20   17 1 
     8   17   16 1 
     9   16   19 1 
    10   16    5 1 
    11    4    5 ar
    12    4    1 ar
    13    5    8 ar
    14    2    1 1 
    15    1    6 ar
    16    8   25 ar
    17    6   25 ar
    18    6   12 1 
    19   11   10 1 
    20   11   12 1 
    21   15   10 1 
    22   25    3 1 
    23   10    9 2 
    24   12   26 1 
    25    3    7 1 
    26   26    7 1 
    27   26   27 1 
    28    9   27 1 
    29    7   14 1 
    30    7   13 1 
    31   29    2 1 
@<TRIPOS>SUBSTRUCTURE
1 MOL         1
@<TRIPOS>MOLECULE
query molecule
   29    31     1     0     0
SMALL
NO_CHARGE

@<TRIPOS>ATOM
      1 C1        -34.0943   11.2494   16.5782 C.ar      1 MOL     0.0780
      2 O1        -32.8035   11.2100   16.1339 O.3       1 MOL    -0.3605
      3 O2        -37.1610    9.3842   16.2059 O.3       1 MOL    -0.3392
      4 C2        -34.4687   12.2569   17.4552 C.ar      1 MOL     0.0376
      5 C3        -35.7730   12.3101   17.9174 C.ar      1 MOL    -0.0372
      6 C5        -35.0206   10.2735   16.1560 C.ar      1 MOL     0.0200
      7 C6        -36.7868    8.1594   15.4896 C.3       1 MOL     0.0764
      8 C4        -36.6740   11.3656   17.4516 C.ar      1 MOL     0.0379
      9 C10       -34.3027    7.7477   12.8950 C.2       1 MOL     0.0030
     10 C11       -33.7488    9.0240   12.9868 C.2       1 MOL    -0.0365
     11 C12       -34.1202    9.8895   14.0318 C.3       1 MOL    -0.0105
     12 C13       -34.7325    9.2136   15.2826 C.3       1 MOL     0.0574
     13 C14       -38.0362    7.5619   14.8408 C.3       1 MOL     0.0431
     14 C15       -36.1733    7.1457   16.4635 C.3       1 MOL     0.0431
     15 C16       -32.8208    9.4429   12.0385 C.3       1 MOL     0.0167
     16 C17       -36.1878   13.3013   18.8142 C.3       1 MOL    -0.0102
     17 C18       -37.2130   12.7846   19.8286 C.3       1 MOL     0.0110
     18 C19       -36.8266   14.4514   18.0372 C.3       1 MOL     0.0159
     19 C20       -34.9656   13.8358   19.5568 C.3       1 MOL     0.0159
     20 C21       -36.8203   11.4017   20.3537 C.3       1 MOL     0.0009
     21 C22       -36.9540   11.3849   21.8782 C.3       1 MOL     0.0002
     22 C23       -36.1661   12.5583   22.4721 C.3       1 MOL     0.0009
     23 C24       -35.3099   12.0586   23.6374 C.3       1 MOL     0.0115
     24 C25       -34.6099   13.2254   24.3463 C.3       1 MOL     0.0805
     25 C7        -36.2760   10.2251   16.7895 C.ar      1 MOL     0.0824
     26 C8        -35.8697    8.6179   14.4761 C.3       1 MOL     0.0553
     27 C9        -35.2199    7.3963   13.8767 C.3       1 MOL    -0.0191
     28 BR1       -35.4846   13.6966   26.0168 Br        1 MOL    -0.0928
     29 H1        -32.4348   12.0961   16.1433 H         1 MOL     0.2183
@<TRIPOS>BOND
     1   24   23 1 
     2   24   28 1 
     3   18   16 1 
     4   23   22 1 
     5   22   21 1 
     6   21   20 1 
     7   20   17 1 
     8   17   16 1 
     9   16   19 1 
    10   16    5 1 
    11    4    5 ar
    12    4    1 ar
    13    5    8 ar
    14    2    1 1 
    15    1    6 ar
    16    8   25 ar
    17    6   25 ar
    18    6   12 1 
    19   11   10 1 
    20   11   12 1 
    21   15   10 1 
    22   25    3 1 
    23   10    9 2 
    24   12   26 1 
    25    3    7 1 
    26   26    7 1 
    27   26   27 1 
    28    9   27 1 
    29    7   14 1 
    30    7   13 1 
    31   29    2 1 
@<TRIPOS>SUBSTRUCTURE
1 MOL         1
@<TRIPOS>MOLECULE
query molecule
   29    31     1     0     0
SMALL
NO_CHARGE

@<TRIPOS>ATOM
      1 C1        -21.1790    0.6081   16.2787 C.ar      1 MOL     0.0780
      2 O1        -20.7341    0.7292   17.5642 O.3       1 MOL    -0.3605
      3 O2        -19.8281    0.3189   12.9449 O.3       1 MOL    -0.3392
      4 C2        -22.5457    0.5562   16.0466 C.ar      1 MOL     0.0376
      5 C3        -23.0138    0.4310   14.7494 C.ar      1 MOL    -0.0372
      6 C5        -20.2585    0.5277   15.2134 C.ar      1 MOL     0.0200
      7 C6        -18.3861    0.1163   13.1258 C.3       1 MOL     0.0764
      8 C4        -22.0890    0.3994   13.7175 C.ar      1 MOL     0.0379
      9 C10       -16.2191    1.5405   15.6454 C.2       1 MOL     0.0030
     10 C11       -17.2211    2.1195   16.4230 C.2       1 MOL    -0.0365
     11 C12       -18.5761    1.8507   16.1565 C.3       1 MOL    -0.0105
     12 C13       -18.8623    0.5603   15.3508 C.3       1 MOL     0.0574
     13 C14       -17.6656    0.4892   11.8294 C.3       1 MOL     0.0431
     14 C15       -18.0993   -1.3493   13.4752 C.3       1 MOL     0.0431
     15 C16       -16.8774    2.9681   17.4708 C.3       1 MOL     0.0167
     16 C17       -24.3840    0.3604   14.4733 C.3       1 MOL    -0.0102
     17 C18       -25.0869    1.7120   14.6355 C.3       1 MOL     0.0110
     18 C19       -25.0419   -0.6347   15.4280 C.3       1 MOL     0.0159
     19 C20       -24.5727   -0.1401   13.0433 C.3       1 MOL     0.0159
     20 C21       -26.4042    1.5601   15.3995 C.3       1 MOL     0.0009
     21 C22       -26.4331    2.5598   16.5580 C.3       1 MOL     0.0002
     22 C23       -27.5958    3.5388   16.3577 C.3       1 MOL     0.0009
     23 C24       -27.9846    3.5714   14.8784 C.3       1 MOL     0.0115
     24 C25       -26.8641    4.1840   14.0279 C.3       1 MOL     0.0805
     25 C7        -20.7435    0.1988   13.9342 C.ar      1 MOL     0.0824
     26 C8        -18.0357    1.0416   14.1746 C.3       1 MOL     0.0553
     27 C9        -16.6351    0.7029   14.6188 C.3       1 MOL    -0.0191
     28 BR1       -27.5384    4.9552   12.3762 Br        1 MOL    -0.0928
     29 H1        -21.4372    0.4853   18.1703 H         1 MOL     0.2183
@<TRIPOS>BOND
     1   24   23 1 
     2   24   28 1 
     3   18   16 1 
     4   23   22 1 
     5   22   21 1 
     6   21   20 1 
     7   20   17 1 
     8   17   16 1 
     9   16   19 1 
    10   16    5 1 
    11    4    5 ar
    12    4    1 ar
    13    5    8 ar
    14    2    1 1 
    15    1    6 ar
    16    8   25 ar
    17    6   25 ar
    18    6   12 1 
    19   11   10 1 
    20   11   12 1 
    21   15   10 1 
    22   25    3 1 
    23   10    9 2 
    24   12   26 1 
    25    3    7 1 
    26   26    7 1 
    27   26   27 1 
    28    9   27 1 
    29    7   14 1 
    30    7   13 1 
    31   29    2 1 
@<TRIPOS>SUBSTRUCTURE
1 MOL         1
@<TRIPOS>MOLECULE
query molecule
   29    31     1     0     0
SMALL
NO_CHARGE

@<TRIPOS>ATOM
      1 C1        -22.9384    1.5460   15.5564 C.ar      1 MOL     0.0780
      2 O1        -22.4069    2.3216   14.5659 O.3       1 MOL    -0.3605
      3 O2        -22.1018   -1.4148   17.4422 O.3       1 MOL    -0.3392
      4 C2        -24.1645    1.9024   16.0990 C.ar      1 MOL     0.0376
      5 C3        -24.7165    1.1283   17.1058 C.ar      1 MOL    -0.0372
      6 C5        -22.2419    0.4110   16.0204 C.ar      1 MOL     0.0200
      7 C6        -20.7059   -1.7116   17.1012 C.3       1 MOL     0.0764
      8 C4        -24.0325   -0.0067   17.5118 C.ar      1 MOL     0.0379
      9 C10       -19.0290   -1.2712   13.9284 C.2       1 MOL     0.0030
     10 C11       -20.0568   -0.5802   13.2881 C.2       1 MOL    -0.0365
     11 C12       -21.1832   -0.1463   14.0107 C.3       1 MOL    -0.0105
     12 C13       -20.9952   -0.0205   15.5421 C.3       1 MOL     0.0574
     13 C14       -20.4180   -3.1795   17.4197 C.3       1 MOL     0.0431
     14 C15       -19.7629   -0.8113   17.9090 C.3       1 MOL     0.0431
     15 C16       -19.9662   -0.3171   11.9248 C.3       1 MOL     0.0167
     16 C17       -25.9440    1.4611   17.6900 C.3       1 MOL    -0.0102
     17 C18       -27.1384    1.0502   16.8230 C.3       1 MOL     0.0110
     18 C19       -26.0096    2.9726   17.9035 C.3       1 MOL     0.0159
     19 C20       -26.0446    0.7732   19.0493 C.3       1 MOL     0.0159
     20 C21       -26.7469    0.9748   15.3454 C.3       1 MOL     0.0009
     21 C22       -27.6190    1.9433   14.5430 C.3       1 MOL     0.0002
     22 C23       -26.7240    2.9598   13.8246 C.3       1 MOL     0.0009
     23 C24       -27.4776    4.2822   13.6706 C.3       1 MOL     0.0115
     24 C25       -28.7294    4.1047   12.8013 C.3       1 MOL     0.0805
     25 C7        -22.7178   -0.2404   17.1731 C.ar      1 MOL     0.0824
     26 C8        -20.6425   -1.4887   15.6782 C.3       1 MOL     0.0553
     27 C9        -19.1855   -1.4963   15.2898 C.3       1 MOL    -0.0191
     28 BR1       -30.3670    4.3477   13.8196 Br        1 MOL    -0.0928
     29 H1        -22.7812    3.2041   14.6151 H         1 MOL     0.2183
@<TRIPOS>BOND
     1   24   23 1 
     2   24   28 1 
     3   18   16 1 
     4   23   22 1 
     5   22   21 1 
     6   21   20 1 
     7   20   17 1 
     8   17   16 1 
     9   16   19 1 
    10   16    5 1 
    11    4    5 ar
    12    4    1 ar
    13    5    8 ar
    14    2    1 1 
    15    1    6 ar
    16    8   25 ar
    17    6   25 ar
    18    6   12 1 
    19   11   10 1 
    20   11   12 1 
    21   15   10 1 
    22   25    3 1 
    23   10    9 2 
    24   12   26 1 
    25    3    7 1 
    26   26    7 1 
    27   26   27 1 
    28    9   27 1 
    29    7   14 1 
    30    7   13 1 
    31   29    2 1 
@<TRIPOS>SUBSTRUCTURE
1 MOL         1
@<TRIPOS>MOLECULE
query molecule
   29    31     1     0     0
SMALL
NO_CHARGE

@<TRIPOS>ATOM
      1 C1        -24.1263    2.0979   16.5135 C.ar      1 MOL     0.0780
      2 O1        -24.1651    3.4480   16.7160 O.3       1 MOL    -0.3605
      3 O2        -25.6251   -0.3769   14.3568 O.3       1 MOL    -0.3392
      4 C2        -23.2852    1.3276   17.3033 C.ar      1 MOL     0.0376
      5 C3        -23.2319   -0.0425   17.1096 C.ar      1 MOL    -0.0372
      6 C5        -24.9226    1.5072   15.5108 C.ar      1 MOL     0.0200
      7 C6        -26.3406    0.3862   13.3278 C.3       1 MOL     0.0764
      8 C4        -24.0579   -0.6027   16.1479 C.ar      1 MOL     0.0379
      9 C10       -28.1025    3.5237   13.6801 C.2       1 MOL     0.0030
     10 C11       -27.6936    3.8020   14.9837 C.2       1 MOL    -0.0365
     11 C12       -26.7101    3.0125   15.6070 C.3       1 MOL    -0.0105
     12 C13       -25.7925    2.2039   14.6580 C.3       1 MOL     0.0574
     13 C14       -27.4017   -0.5125   12.6910 C.3       1 MOL     0.0431
     14 C15       -25.3596    0.8712   12.2533 C.3       1 MOL     0.0431
     15 C16       -28.2619    4.8697   15.6717 C.3       1 MOL     0.0167
     16 C17       -22.3862   -0.8537   17.8748 C.3       1 MOL    -0.0102
     17 C18       -22.8226   -0.9401   19.3408 C.3       1 MOL     0.0110
     18 C19       -20.9680   -0.2867   17.8341 C.3       1 MOL     0.0159
     19 C20       -22.3673   -2.2548   17.2687 C.3       1 MOL     0.0159
     20 C21       -23.9454   -1.9641   19.5223 C.3       1 MOL     0.0009
     21 C22       -24.9628   -1.4232   20.5296 C.3       1 MOL     0.0002
     22 C23       -25.5455   -2.5866   21.3404 C.3       1 MOL     0.0009
     23 C24       -24.4451   -3.2071   22.2032 C.3       1 MOL     0.0115
     24 C25       -24.9079   -4.5364   22.8140 C.3       1 MOL     0.0805
     25 C7        -24.7049    0.1534   15.1953 C.ar      1 MOL     0.0824
     26 C8        -26.9690    1.4547   14.0639 C.3       1 MOL     0.0553
     27 C9        -27.4912    2.4454   13.0540 C.3       1 MOL    -0.0191
     28 BR1       -26.8412   -4.6246   22.9931 Br        1 MOL    -0.0928
     29 H1        -24.3247    3.8923   15.8804 H         1 MOL     0.2183
@<TRIPOS>BOND
     1   24   23 1 
     2   24   28 1 
     3   18   16 1 
     4   23   22 1 
     5   22   21 1 
     6   21   20 1 
     7   20   17 1 
     8   17   16 1 
     9   16   19 1 
    10   16    5 1 
    11    4    5 ar
    12    4    1 ar
    13    5    8 ar
    14    2    1 1 
    15    1    6 ar
    16    8   25 ar
    17    6   25 ar
    18    6   12 1 
    19   11   10 1 
    20   11   12 1 
    21   15   10 1 
    22   25    3 1 
    23   10    9 2 
    24   12   26 1 
    25    3    7 1 
    26   26    7 1 
    27   26   27 1 
    28    9   27 1 
    29    7   14 1 
    30    7   13 1 
    31   29    2 1 
@<TRIPOS>SUBSTRUCTURE
1 MOL         1
@<TRIPOS>MOLECULE
query molecule
   29    31     1     0     0
SMALL
NO_CHARGE

@<TRIPOS>ATOM
      1 C1        -22.9071   -0.0515   17.5203 C.ar      1 MOL     0.0780
      2 O1        -21.8077   -0.1912   16.7222 O.3       1 MOL    -0.3605
      3 O2        -24.1220   -1.2180   20.7118 O.3       1 MOL    -0.3392
      4 C2        -23.9398    0.7725   17.0970 C.ar      1 MOL     0.0376
      5 C3        -25.0607    0.9273   17.8951 C.ar      1 MOL    -0.0372
      6 C5        -22.9785   -0.7282   18.7554 C.ar      1 MOL     0.0200
      7 C6        -22.9819   -1.8980   21.3370 C.3       1 MOL     0.0764
      8 C4        -25.1249    0.2159   19.0828 C.ar      1 MOL     0.0379
      9 C10       -20.4048   -3.8768   19.7511 C.2       1 MOL     0.0030
     10 C11       -20.7574   -3.5892   18.4331 C.2       1 MOL    -0.0365
     11 C12       -21.7268   -2.6093   18.1514 C.3       1 MOL    -0.0105
     12 C13       -21.9823   -1.5712   19.2710 C.3       1 MOL     0.0574
     13 C14       -23.5015   -2.8473   22.4177 C.3       1 MOL     0.0431
     14 C15       -22.0332   -0.8687   21.9637 C.3       1 MOL     0.0431
     15 C16       -20.1444   -4.2757   17.3896 C.3       1 MOL     0.0167
     16 C17       -26.1180    1.7604   17.5118 C.3       1 MOL    -0.0102
     17 C18       -27.0139    1.1208   16.4462 C.3       1 MOL     0.0110
     18 C19       -25.5559    3.0615   16.9412 C.3       1 MOL     0.0159
     19 C20       -26.9553    2.0917   18.7448 C.3       1 MOL     0.0159
     20 C21       -26.3873    1.2404   15.0551 C.3       1 MOL     0.0009
     21 C22       -27.1029    2.3444   14.2732 C.3       1 MOL     0.0002
     22 C23       -28.4618    1.8265   13.7879 C.3       1 MOL     0.0009
     23 C24       -29.1976    2.9446   13.0468 C.3       1 MOL     0.0115
     24 C25       -29.6329    4.0529   14.0144 C.3       1 MOL     0.0805
     25 C7        -24.0251   -0.4014   19.6371 C.ar      1 MOL     0.0824
     26 C8        -22.3917   -2.6481   20.2565 C.3       1 MOL     0.0553
     27 C9        -21.0553   -3.1515   20.7407 C.3       1 MOL    -0.0191
     28 BR1       -28.2821    5.4388   14.1940 Br        1 MOL    -0.0928
     29 H1        -21.9571    0.2623   15.8896 H         1 MOL     0.2183
@<TRIPOS>BOND
     1   24   23 1 
     2   24   28 1 
     3   18   16 1 
     4   23   22 1 
     5   22   21 1 
     6   21   20 1 
     7   20   17 1 
     8   17   16 1 
     9   16   19 1 
    10   16    5 1 
    11    4    5 ar
    12    4    1 ar
    13    5    8 ar
    14    2    1 1 
    15    1    6 ar
    16    8   25 ar
    17    6   25 ar
    18    6   12 1 
    19   11   10 1 
    20   11   12 1 
    21   15   10 1 
    22   25    3 1 
    23   10    9 2 
    24   12   26 1 
    25    3    7 1 
    26   26    7 1 
    27   26   27 1 
    28    9   27 1 
    29    7   14 1 
    30    7   13 1 
    31   29    2 1 
@<TRIPOS>SUBSTRUCTURE
1 MOL         1
@<TRIPOS>MOLECULE
query molecule
   29    31     1     0     0
SMALL
NO_CHARGE

@<TRIPOS>ATOM
      1 C1        -34.9902   12.7692   14.2005 C.ar      1 MOL     0.0780
      2 O1        -34.5639   13.3815   13.0566 O.3       1 MOL    -0.3605
      3 O2        -36.7348    9.7718   15.1977 O.3       1 MOL    -0.3392
      4 C2        -34.7246   13.3734   15.4207 C.ar      1 MOL     0.0376
      5 C3        -35.1477   12.7649   16.5904 C.ar      1 MOL    -0.0372
      6 C5        -35.6783   11.5402   14.1339 C.ar      1 MOL     0.0200
      7 C6        -36.8324    8.9559   13.9820 C.3       1 MOL     0.0764
      8 C4        -35.8609   11.5804   16.4940 C.ar      1 MOL     0.0379
      9 C10       -37.3049   10.0593   10.5715 C.2       1 MOL     0.0030
     10 C11       -37.1545   11.4243   10.8127 C.2       1 MOL    -0.0365
     11 C12       -36.7281   11.8836   12.0722 C.3       1 MOL    -0.0105
     12 C13       -35.9821   10.8499   12.9504 C.3       1 MOL     0.0574
     13 C14       -37.9632    7.9408   14.1545 C.3       1 MOL     0.0431
     14 C15       -35.5096    8.2210   13.7326 C.3       1 MOL     0.0431
     15 C16       -37.4267   12.3379    9.7992 C.3       1 MOL     0.0167
     16 C17       -34.8874   13.3337   17.8424 C.3       1 MOL    -0.0102
     17 C18       -35.0211   12.3234   18.9864 C.3       1 MOL     0.0110
     18 C19       -35.8745   14.4719   18.0963 C.3       1 MOL     0.0159
     19 C20       -33.4730   13.9086   17.8373 C.3       1 MOL     0.0159
     20 C21       -34.1491   11.0905   18.7377 C.3       1 MOL     0.0009
     21 C22       -32.9715   11.1006   19.7152 C.3       1 MOL     0.0002
     22 C23       -33.3216   10.2533   20.9440 C.3       1 MOL     0.0009
     23 C24       -34.4190   10.9526   21.7486 C.3       1 MOL     0.0115
     24 C25       -33.9171   12.2838   22.3232 C.3       1 MOL     0.0805
     25 C7        -35.9186   10.8428   15.3320 C.ar      1 MOL     0.0824
     26 C8        -37.1698    9.9077   12.9529 C.3       1 MOL     0.0553
     27 C9        -37.0134    9.2059   11.6275 C.3       1 MOL    -0.0191
     28 BR1       -35.2377   13.6992   22.1492 Br        1 MOL    -0.0928
     29 H1        -35.3236   13.6737   12.5480 H         1 MOL     0.2183
@<TRIPOS>BOND
     1   24   23 1 
     2   24   28 1 
     3   18   16 1 
     4   23   22 1 
     5   22   21 1 
     6   21   20 1 
     7   20   17 1 
     8   17   16 1 
     9   16   19 1 
    10   16    5 1 
    11    4    5 ar
    12    4    1 ar
    13    5    8 ar
    14    2    1 1 
    15    1    6 ar
    16    8   25 ar
    17    6   25 ar
    18    6   12 1 
    19   11   10 1 
    20   11   12 1 
    21   15   10 1 
    22   25    3 1 
    23   10    9 2 
    24   12   26 1 
    25    3    7 1 
    26   26    7 1 
    27   26   27 1 
    28    9   27 1 
    29    7   14 1 
    30    7   13 1 
    31   29    2 1 
@<TRIPOS>SUBSTRUCTURE
1 MOL         1
@<TRIPOS>MOLECULE
query molecule
   29    31     1     0     0
SMALL
NO_CHARGE

@<TRIPOS>ATOM
      1 C1        -37.1835    9.2455   26.5525 C.ar      1 MOL     0.0780
      2 O1        -38.0237    8.3497   25.9552 O.3       1 MOL    -0.3605
      3 O2        -34.0167    9.2740   28.2825 O.3       1 MOL    -0.3392
      4 C2        -37.5300   10.5888   26.5533 C.ar      1 MOL     0.0376
      5 C3        -36.6882   11.5108   27.1524 C.ar      1 MOL    -0.0372
      6 C5        -35.9826    8.8055   27.1465 C.ar      1 MOL     0.0200
      7 C6        -33.4649    7.9259   28.1060 C.3       1 MOL     0.0764
      8 C4        -35.5367   11.0461   27.7679 C.ar      1 MOL     0.0379
      9 C10       -35.2339    4.7745   27.9950 C.2       1 MOL     0.0030
     10 C11       -36.5231    5.3049   27.9686 C.2       1 MOL    -0.0365
     11 C12       -36.7224    6.6885   27.8109 C.3       1 MOL    -0.0105
     12 C13       -35.5437    7.4732   27.1852 C.3       1 MOL     0.0574
     13 C14       -32.4171    7.6721   29.1907 C.3       1 MOL     0.0431
     14 C15       -32.8188    7.7977   26.7210 C.3       1 MOL     0.0431
     15 C16       -37.6199    4.4583   28.0976 C.3       1 MOL     0.0167
     16 C17       -36.9934   12.8766   27.1623 C.3       1 MOL    -0.0102
     17 C18       -35.7626   13.7558   26.9190 C.3       1 MOL     0.0110
     18 C19       -37.5852   13.2530   28.5197 C.3       1 MOL     0.0159
     19 C20       -38.0364   13.1556   26.0828 C.3       1 MOL     0.0159
     20 C21       -35.0460   13.3558   25.6273 C.3       1 MOL     0.0009
     21 C22       -35.9926   13.5595   24.4420 C.3       1 MOL     0.0002
     22 C23       -35.3809   12.9271   23.1865 C.3       1 MOL     0.0009
     23 C24       -36.3392   11.8727   22.6291 C.3       1 MOL     0.0115
     24 C25       -35.6090   10.9096   21.6840 C.3       1 MOL     0.0805
     25 C7        -35.0511    9.7727   27.5667 C.ar      1 MOL     0.0824
     26 C8        -34.6011    7.0593   28.2981 C.3       1 MOL     0.0553
     27 C9        -34.1877    5.6774   27.8583 C.3       1 MOL    -0.0191
     28 BR1       -34.4406   11.8466   20.4452 Br        1 MOL    -0.0928
     29 H1        -37.6721    8.1050   25.0963 H         1 MOL     0.2183
@<TRIPOS>BOND
     1   24   23 1 
     2   24   28 1 
     3   18   16 1 
     4   23   22 1 
     5   22   21 1 
     6   21   20 1 
     7   20   17 1 
     8   17   16 1 
     9   16   19 1 
    10   16    5 1 
    11    4    5 ar
    12    4    1 ar
    13    5    8 ar
    14    2    1 1 
    15    1    6 ar
    16    8   25 ar
    17    6   25 ar
    18    6   12 1 
    19   11   10 1 
    20   11   12 1 
    21   15   10 1 
    22   25    3 1 
    23   10    9 2 
    24   12   26 1 
    25    3    7 1 
    26   26    7 1 
    27   26   27 1 
    28    9   27 1 
    29    7   14 1 
    30    7   13 1 
    31   29    2 1 
@<TRIPOS>SUBSTRUCTURE
1 MOL         1
@<TRIPOS>MOLECULE
query molecule
   29    31     1     0     0
SMALL
NO_CHARGE

@<TRIPOS>ATOM
      1 C1        -34.0614   12.5263   18.0253 C.ar      1 MOL     0.0780
      2 O1        -32.7098   12.6726   18.1552 O.3       1 MOL    -0.3605
      3 O2        -36.4342   11.0483   15.7433 O.3       1 MOL    -0.3392
      4 C2        -34.8878   13.0491   19.0094 C.ar      1 MOL     0.0376
      5 C3        -36.2605   12.9074   18.8945 C.ar      1 MOL    -0.0372
      6 C5        -34.5983   11.8458   16.9130 C.ar      1 MOL     0.0200
      7 C6        -35.6300   10.2597   14.8028 C.3       1 MOL     0.0764
      8 C4        -36.7637   12.2740   17.7692 C.ar      1 MOL     0.0379
      9 C10       -32.3469   11.0053   13.4846 C.2       1 MOL     0.0030
     10 C11       -32.0826   12.1049   14.3002 C.2       1 MOL    -0.0365
     11 C12       -32.9432   12.4262   15.3657 C.3       1 MOL    -0.0105
     12 C13       -33.8439   11.2754   15.8763 C.3       1 MOL     0.0574
     13 C14       -36.4446   10.0222   13.5304 C.3       1 MOL     0.0431
     14 C15       -35.2496    8.9144   15.4334 C.3       1 MOL     0.0431
     15 C16       -30.9585   12.8885   14.0586 C.3       1 MOL     0.0167
     16 C17       -37.1284   13.4072   19.8722 C.3       1 MOL    -0.0102
     17 C18       -38.0135   12.3173   20.4852 C.3       1 MOL     0.0110
     18 C19       -38.0390   14.4634   19.2482 C.3       1 MOL     0.0159
     19 C20       -36.3017   14.0669   20.9733 C.3       1 MOL     0.0159
     20 C21       -37.1804   11.1080   20.9159 C.3       1 MOL     0.0009
     21 C22       -36.7171   11.3041   22.3613 C.3       1 MOL     0.0002
     22 C23       -35.2246   11.6545   22.3753 C.3       1 MOL     0.0009
     23 C24       -34.9733   12.7708   23.3908 C.3       1 MOL     0.0115
     24 C25       -33.4947   13.1800   23.4047 C.3       1 MOL     0.0805
     25 C7        -35.9710   11.5370   16.9170 C.ar      1 MOL     0.0824
     26 C8        -34.4989   11.1077   14.5194 C.3       1 MOL     0.0553
     27 C9        -33.4843   10.2676   13.7855 C.3       1 MOL    -0.0191
     28 BR1       -33.0742   14.4494   21.9943 Br        1 MOL    -0.0928
     29 H1        -32.4103   13.3903   17.5927 H         1 MOL     0.2183
@<TRIPOS>BOND
     1   24   23 1 
     2   24   28 1 
     3   18   16 1 
     4   23   22 1 
     5   22   21 1 
     6   21   20 1 
     7   20   17 1 
     8   17   16 1 
     9   16   19 1 
    10   16    5 1 
    11    4    5 ar
    12    4    1 ar
    13    5    8 ar
    14    2    1 1 
    15    1    6 ar
    16    8   25 ar
    17    6   25 ar
    18    6   12 1 
    19   11   10 1 
    20   11   12 1 
    21   15   10 1 
    22   25    3 1 
    23   10    9 2 
    24   12   26 1 
    25    3    7 1 
    26   26    7 1 
    27   26   27 1 
    28    9   27 1 
    29    7   14 1 
    30    7   13 1 
    31   29    2 1 
@<TRIPOS>SUBSTRUCTURE
1 MOL         1
@<TRIPOS>MOLECULE
query molecule
   29    31     1     0     0
SMALL
NO_CHARGE

@<TRIPOS>ATOM
      1 C1        -24.9309   -0.6348   17.5830 C.ar      1 MOL     0.0780
      2 O1        -25.3720   -1.3548   18.6564 O.3       1 MOL    -0.3605
      3 O2        -21.8200    0.2002   15.9560 O.3       1 MOL    -0.3392
      4 C2        -25.8624    0.0123   16.7840 C.ar      1 MOL     0.0376
      5 C3        -25.4325    0.7447   15.6903 C.ar      1 MOL    -0.0372
      6 C5        -23.5526   -0.5640   17.2934 C.ar      1 MOL     0.0200
      7 C6        -20.8072   -0.6483   16.5943 C.3       1 MOL     0.0764
      8 C4        -24.0697    0.8348   15.4546 C.ar      1 MOL     0.0379
      9 C10       -20.6108   -1.6943   20.0497 C.2       1 MOL     0.0030
     10 C11       -21.8567   -1.2088   20.4447 C.2       1 MOL    -0.0365
     11 C12       -22.7657   -0.7162   19.4907 C.3       1 MOL    -0.0105
     12 C13       -22.5402   -1.1920   18.0350 C.3       1 MOL     0.0574
     13 C14       -19.4262   -0.0338   16.3620 C.3       1 MOL     0.0431
     14 C15       -20.8525   -2.0614   15.9997 C.3       1 MOL     0.0431
     15 C16       -22.2031   -1.2135   21.7923 C.3       1 MOL     0.0167
     16 C17       -26.3402    1.4002   14.8506 C.3       1 MOL    -0.0102
     17 C18       -25.8111    2.7486   14.3514 C.3       1 MOL     0.0110
     18 C19       -27.6413    1.6525   15.6107 C.3       1 MOL     0.0159
     19 C20       -26.6422    0.5006   13.6546 C.3       1 MOL     0.0159
     20 C21       -26.7998    3.4052   13.3853 C.3       1 MOL     0.0009
     21 C22       -27.1794    4.7895   13.9162 C.3       1 MOL     0.0002
     22 C23       -27.9241    5.5675   12.8251 C.3       1 MOL     0.0009
     23 C24       -27.5333    7.0449   12.8965 C.3       1 MOL     0.0115
     24 C25       -27.5413    7.6846   11.5019 C.3       1 MOL     0.0805
     25 C7        -23.1547    0.0108   16.0724 C.ar      1 MOL     0.0824
     26 C8        -21.1462   -0.5975   17.9947 C.3       1 MOL     0.0553
     27 C9        -20.3338   -1.6612   18.6893 C.3       1 MOL    -0.0191
     28 BR1       -26.4366    6.7019   10.2405 Br        1 MOL    -0.0928
     29 H1        -25.5488   -2.2582   18.3847 H         1 MOL     0.2183
@<TRIPOS>BOND
     1   24   23 1 
     2   24   28 1 
     3   18   16 1 
     4   23   22 1 
     5   22   21 1 
     6   21   20 1 
     7   20   17 1 
     8   17   16 1 
     9   16   19 1 
    10   16    5 1 
    11    4    5 ar
    12    4    1 ar
    13    5    8 ar
    14    2    1 1 
    15    1    6 ar
    16    8   25 ar
    17    6   25 ar
    18    6   12 1 
    19   11   10 1 
    20   11   12 1 
    21   15   10 1 
    22   25    3 1 
    23   10    9 2 
    24   12   26 1 
    25    3    7 1 
    26   26    7 1 
    27   26   27 1 
    28    9   27 1 
    29    7   14 1 
    30    7   13 1 
    31   29    2 1 
@<TRIPOS>SUBSTRUCTURE
1 MOL         1
@<TRIPOS>MOLECULE
query molecule
   29    31     1     0     0
SMALL
NO_CHARGE

@<TRIPOS>ATOM
      1 C1        -36.2313    7.6892   27.0572 C.ar      1 MOL     0.0780
      2 O1        -36.9610    6.6382   26.5796 O.3       1 MOL    -0.3605
      3 O2        -32.9531    8.3323   28.4217 O.3       1 MOL    -0.3392
      4 C2        -36.8044    8.9526   27.0635 C.ar      1 MOL     0.0376
      5 C3        -36.0775   10.0297   27.5421 C.ar      1 MOL    -0.0372
      6 C5        -34.9162    7.4866   27.5241 C.ar      1 MOL     0.0200
      7 C6        -32.1968    7.0915   28.2181 C.3       1 MOL     0.0764
      8 C4        -34.8041    9.7953   28.0365 C.ar      1 MOL     0.0379
      9 C10       -33.3916    3.6830   28.3828 C.2       1 MOL     0.0030
     10 C11       -34.7489    3.9842   28.4874 C.2       1 MOL    -0.0365
     11 C12       -35.2017    5.3055   28.3189 C.3       1 MOL    -0.0105
     12 C13       -34.2504    6.2515   27.5465 C.3       1 MOL     0.0574
     13 C14       -31.0121    7.0674   29.1850 C.3       1 MOL     0.0431
     14 C15       -31.6882    7.0151   26.7732 C.3       1 MOL     0.0431
     15 C16       -35.6616    2.9697   28.7588 C.3       1 MOL     0.0167
     16 C17       -36.6131   11.3227   27.5523 C.3       1 MOL    -0.0102
     17 C18       -36.6163   11.9688   26.1632 C.3       1 MOL     0.0110
     18 C19       -35.7856   12.2058   28.4849 C.3       1 MOL     0.0159
     19 C20       -38.0427   11.2589   28.0845 C.3       1 MOL     0.0159
     20 C21       -35.2382   12.5366   25.8161 C.3       1 MOL     0.0009
     21 C22       -35.3123   13.2472   24.4626 C.3       1 MOL     0.0002
     22 C23       -35.2135   12.2113   23.3368 C.3       1 MOL     0.0009
     23 C24       -35.2057   12.9277   21.9850 C.3       1 MOL     0.0115
     24 C25       -36.6273   13.3197   21.5613 C.3       1 MOL     0.0805
     25 C7        -34.1283    8.6157   27.8138 C.ar      1 MOL     0.0824
     26 C8        -33.1379    6.0532   28.5570 C.3       1 MOL     0.0553
     27 C9        -32.5390    4.7442   28.1081 C.3       1 MOL    -0.0191
     28 BR1       -37.9812   12.4420   22.6449 Br        1 MOL    -0.0928
     29 H1        -36.3686    5.9767   26.2155 H         1 MOL     0.2183
@<TRIPOS>BOND
     1   24   23 1 
     2   24   28 1 
     3   18   16 1 
     4   23   22 1 
     5   22   21 1 
     6   21   20 1 
     7   20   17 1 
     8   17   16 1 
     9   16   19 1 
    10   16    5 1 
    11    4    5 ar
    12    4    1 ar
    13    5    8 ar
    14    2    1 1 
    15    1    6 ar
    16    8   25 ar
    17    6   25 ar
    18    6   12 1 
    19   11   10 1 
    20   11   12 1 
    21   15   10 1 
    22   25    3 1 
    23   10    9 2 
    24   12   26 1 
    25    3    7 1 
    26   26    7 1 
    27   26   27 1 
    28    9   27 1 
    29    7   14 1 
    30    7   13 1 
    31   29    2 1 
@<TRIPOS>SUBSTRUCTURE
1 MOL         1
@<TRIPOS>MOLECULE
query molecule
   29    31     1     0     0
SMALL
NO_CHARGE

@<TRIPOS>ATOM
      1 C1        -36.8392   10.5886   15.8961 C.ar      1 MOL     0.0780
      2 O1        -37.6488   10.6714   16.9929 O.3       1 MOL    -0.3605
      3 O2        -35.8082    8.1439   13.4501 O.3       1 MOL    -0.3392
      4 C2        -36.1564   11.7232   15.4823 C.ar      1 MOL     0.0376
      5 C3        -35.3332   11.6573   14.3707 C.ar      1 MOL    -0.0372
      6 C5        -36.7132    9.3705   15.1969 C.ar      1 MOL     0.0200
      7 C6        -36.6778    6.9826   13.6705 C.3       1 MOL     0.0764
      8 C4        -35.1925   10.4370   13.7289 C.ar      1 MOL     0.0379
      9 C10       -37.9768    5.7137   16.7969 C.2       1 MOL     0.0030
     10 C11       -37.5530    6.7727   17.5987 C.2       1 MOL    -0.0365
     11 C12       -37.0119    7.9346   17.0188 C.3       1 MOL    -0.0105
     12 C13       -37.3707    8.1771   15.5326 C.3       1 MOL     0.0574
     13 C14       -36.0141    5.7436   13.0677 C.3       1 MOL     0.0431
     14 C15       -38.0425    7.2129   13.0096 C.3       1 MOL     0.0431
     15 C16       -37.6680    6.6793   18.9822 C.3       1 MOL     0.0167
     16 C17       -34.6384   12.7820   13.9116 C.3       1 MOL    -0.0102
     17 C18       -33.2361   12.8950   14.5184 C.3       1 MOL     0.0110
     18 C19       -35.4180   14.0435   14.2794 C.3       1 MOL     0.0159
     19 C20       -34.5273   12.7050   12.3908 C.3       1 MOL     0.0159
     20 C21       -32.4576   11.5876   14.3546 C.3       1 MOL     0.0009
     21 C22       -31.3826   11.5018   15.4406 C.3       1 MOL     0.0002
     22 C23       -31.8237   12.3192   16.6603 C.3       1 MOL     0.0009
     23 C24       -30.9948   11.9048   17.8775 C.3       1 MOL     0.0115
     24 C25       -31.7592   10.8985   18.7477 C.3       1 MOL     0.0805
     25 C7        -36.0384    9.3750   13.9623 C.ar      1 MOL     0.0824
     26 C8        -36.7412    6.8655   15.1061 C.3       1 MOL     0.0553
     27 C9        -37.8343    5.8770   15.4253 C.3       1 MOL    -0.0191
     28 BR1       -31.2874    9.0608   18.3260 Br        1 MOL    -0.0928
     29 H1        -37.9527   11.5757   17.0985 H         1 MOL     0.2183
@<TRIPOS>BOND
     1   24   23 1 
     2   24   28 1 
     3   18   16 1 
     4   23   22 1 
     5   22   21 1 
     6   21   20 1 
     7   20   17 1 
     8   17   16 1 
     9   16   19 1 
    10   16    5 1 
    11    4    5 ar
    12    4    1 ar
    13    5    8 ar
    14    2    1 1 
    15    1    6 ar
    16    8   25 ar
    17    6   25 ar
    18    6   12 1 
    19   11   10 1 
    20   11   12 1 
    21   15   10 1 
    22   25    3 1 
    23   10    9 2 
    24   12   26 1 
    25    3    7 1 
    26   26    7 1 
    27   26   27 1 
    28    9   27 1 
    29    7   14 1 
    30    7   13 1 
    31   29    2 1 
@<TRIPOS>SUBSTRUCTURE
1 MOL         1
@<TRIPOS>MOLECULE
query molecule
   29    31     1     0     0
SMALL
NO_CHARGE

@<TRIPOS>ATOM
      1 C1        -36.1176   12.4099   15.0881 C.ar      1 MOL     0.0780
      2 O1        -35.7305   12.9100   13.8777 O.3       1 MOL    -0.3605
      3 O2        -37.2945    9.3053   16.5019 O.3       1 MOL    -0.3392
      4 C2        -36.0829   13.2424   16.1972 C.ar      1 MOL     0.0376
      5 C3        -36.4698   12.7507   17.4325 C.ar      1 MOL    -0.0372
      6 C5        -36.5339   11.0673   15.2013 C.ar      1 MOL     0.0200
      7 C6        -37.1228    8.3053   15.4418 C.3       1 MOL     0.0764
      8 C4        -36.9172   11.4410   17.5075 C.ar      1 MOL     0.0379
      9 C10       -37.5230    8.7273   11.8733 C.2       1 MOL     0.0030
     10 C11       -37.6734   10.1135   11.8825 C.2       1 MOL    -0.0365
     11 C12       -37.4558   10.8470   13.0630 C.3       1 MOL    -0.0105
     12 C13       -36.5914   10.1495   14.1413 C.3       1 MOL     0.0574
     13 C14       -38.0343    7.1121   15.7320 C.3       1 MOL     0.0431
     14 C15       -35.6622    7.8405   15.3871 C.3       1 MOL     0.0431
     15 C16       -38.0399   10.7752   10.7146 C.3       1 MOL     0.0167
     16 C17       -36.4357   13.5530   18.5788 C.3       1 MOL    -0.0102
     17 C18       -36.4354   12.7312   19.8718 C.3       1 MOL     0.0110
     18 C19       -37.6622   14.4640   18.5954 C.3       1 MOL     0.0159
     19 C20       -35.1831   14.4246   18.5324 C.3       1 MOL     0.0159
     20 C21       -35.6187   11.4472   19.7087 C.3       1 MOL     0.0009
     21 C22       -34.5672   11.3744   20.8185 C.3       1 MOL     0.0002
     22 C23       -35.1669   10.6748   22.0438 C.3       1 MOL     0.0009
     23 C24       -36.0490   11.6609   22.8119 C.3       1 MOL     0.0115
     24 C25       -35.2139   12.8087   23.3945 C.3       1 MOL     0.0805
     25 C7        -36.7268   10.5335   16.4887 C.ar      1 MOL     0.0824
     26 C8        -37.5592    8.9874   14.2489 C.3       1 MOL     0.0553
     27 C9        -37.1535    8.1344   13.0735 C.3       1 MOL    -0.0191
     28 BR1       -35.5548   13.0720   25.2897 Br        1 MOL    -0.0928
     29 H1        -36.4898   12.9546   13.2923 H         1 MOL     0.2183
@<TRIPOS>BOND
     1   24   23 1 
     2   24   28 1 
     3   18   16 1 
     4   23   22 1 
     5   22   21 1 
     6   21   20 1 
     7   20   17 1 
     8   17   16 1 
     9   16   19 1 
    10   16    5 1 
    11    4    5 ar
    12    4    1 ar
    13    5    8 ar
    14    2    1 1 
    15    1    6 ar
    16    8   25 ar
    17    6   25 ar
    18    6   12 1 
    19   11   10 1 
    20   11   12 1 
    21   15   10 1 
    22   25    3 1 
    23   10    9 2 
    24   12   26 1 
    25    3    7 1 
    26   26    7 1 
    27   26   27 1 
    28    9   27 1 
    29    7   14 1 
    30    7   13 1 
    31   29    2 1 
@<TRIPOS>SUBSTRUCTURE
1 MOL         1
@<TRIPOS>MOLECULE
query molecule
   29    31     1     0     0
SMALL
NO_CHARGE

@<TRIPOS>ATOM
      1 C1        -20.9804   -1.7813   16.3924 C.ar      1 MOL     0.0780
      2 O1        -21.3484   -3.0846   16.5687 O.3       1 MOL    -0.3605
      3 O2        -21.8465    1.4876   17.6521 O.3       1 MOL    -0.3392
      4 C2        -19.9671   -1.4890   15.4911 C.ar      1 MOL     0.0376
      5 C3        -19.5800   -0.1730   15.3020 C.ar      1 MOL    -0.0372
      6 C5        -21.6174   -0.7584   17.1249 C.ar      1 MOL     0.0200
      7 C6        -22.7389    1.2417   18.7906 C.3       1 MOL     0.0764
      8 C4        -20.2529    0.8166   16.0011 C.ar      1 MOL     0.0379
      9 C10       -25.2154   -1.3638   19.1784 C.2       1 MOL     0.0030
     10 C11       -24.8737   -2.0930   18.0402 C.2       1 MOL    -0.0365
     11 C12       -23.7194   -1.7681   17.3045 C.3       1 MOL    -0.0105
     12 C13       -22.6411   -0.9574   18.0638 C.3       1 MOL     0.0574
     13 C14       -23.5527    2.5069   19.0661 C.3       1 MOL     0.0431
     14 C15       -21.9190    0.8721   20.0330 C.3       1 MOL     0.0431
     15 C16       -25.6800   -3.1505   17.6307 C.3       1 MOL     0.0167
     16 C17       -18.5525    0.1632   14.4133 C.3       1 MOL    -0.0102
     17 C18       -18.8589   -0.2598   12.9730 C.3       1 MOL     0.0110
     18 C19       -17.2615   -0.5292   14.8472 C.3       1 MOL     0.0159
     19 C20       -18.3344    1.6735   14.4619 C.3       1 MOL     0.0159
     20 C21       -20.3571   -0.5026   12.7767 C.3       1 MOL     0.0009
     21 C22       -21.1404    0.6636   13.3841 C.3       1 MOL     0.0002
     22 C23       -22.5282    0.1756   13.8159 C.3       1 MOL     0.0009
     23 C24       -23.1737    1.2201   14.7286 C.3       1 MOL     0.0115
     24 C25       -24.6982    1.0510   14.7670 C.3       1 MOL     0.0805
     25 C7        -21.0763    0.5392   17.0702 C.ar      1 MOL     0.0824
     26 C8        -23.6032    0.1835   18.3304 C.3       1 MOL     0.0553
     27 C9        -24.3640   -0.3243   19.5292 C.3       1 MOL    -0.0191
     28 BR1       -25.5160    2.1107   16.1761 Br        1 MOL    -0.0928
     29 H1        -21.6322   -3.2170   17.4760 H         1 MOL     0.2183
@<TRIPOS>BOND
     1   24   23 1 
     2   24   28 1 
     3   18   16 1 
     4   23   22 1 
     5   22   21 1 
     6   21   20 1 
     7   20   17 1 
     8   17   16 1 
     9   16   19 1 
    10   16    5 1 
    11    4    5 ar
    12    4    1 ar
    13    5    8 ar
    14    2    1 1 
    15    1    6 ar
    16    8   25 ar
    17    6   25 ar
    18    6   12 1 
    19   11   10 1 
    20   11   12 1 
    21   15   10 1 
    22   25    3 1 
    23   10    9 2 
    24   12   26 1 
    25    3    7 1 
    26   26    7 1 
    27   26   27 1 
    28    9   27 1 
    29    7   14 1 
    30    7   13 1 
    31   29    2 1 
@<TRIPOS>SUBSTRUCTURE
1 MOL         1
@<TRIPOS>MOLECULE
query molecule
   29    31     1     0     0
SMALL
NO_CHARGE

@<TRIPOS>ATOM
      1 C1        -21.1807    0.3028   16.0897 C.ar      1 MOL     0.0780
      2 O1        -21.9605    1.2941   16.6137 O.3       1 MOL    -0.3605
      3 O2        -20.2118   -3.0893   16.8495 O.3       1 MOL    -0.3392
      4 C2        -20.5117    0.5387   14.8975 C.ar      1 MOL     0.0376
      5 C3        -19.7188   -0.4564   14.3510 C.ar      1 MOL    -0.0372
      6 C5        -21.0714   -0.9385   16.7498 C.ar      1 MOL     0.0200
      7 C6        -21.0728   -3.4991   17.9647 C.3       1 MOL     0.0764
      8 C4        -19.5931   -1.6506   15.0432 C.ar      1 MOL     0.0379
      9 C10       -22.2841   -1.4937   20.7185 C.2       1 MOL     0.0030
     10 C11       -21.8408   -0.2619   20.2388 C.2       1 MOL    -0.0365
     11 C12       -21.3179   -0.1491   18.9377 C.3       1 MOL    -0.0105
     12 C13       -21.7173   -1.2723   17.9501 C.3       1 MOL     0.0574
     13 C14       -20.4233   -4.6816   18.6851 C.3       1 MOL     0.0431
     14 C15       -22.4554   -3.9072   17.4411 C.3       1 MOL     0.0431
     15 C16       -21.9180    0.8637   21.0532 C.3       1 MOL     0.0167
     16 C17       -19.0388   -0.2644   13.1429 C.3       1 MOL    -0.0102
     17 C18       -17.7122   -1.0288   13.0870 C.3       1 MOL     0.0110
     18 C19       -18.7380    1.2226   12.9624 C.3       1 MOL     0.0159
     19 C20       -19.9357   -0.7221   11.9953 C.3       1 MOL     0.0159
     20 C21       -16.6333   -0.2092   12.3755 C.3       1 MOL     0.0009
     21 C22       -15.8527    0.6034   13.4113 C.3       1 MOL     0.0002
     22 C23       -16.0243    2.0989   13.1207 C.3       1 MOL     0.0009
     23 C24       -16.3050    2.8424   14.4280 C.3       1 MOL     0.0115
     24 C25       -17.4054    2.1411   15.2351 C.3       1 MOL     0.0805
     25 C7        -20.4303   -1.9972   16.0808 C.ar      1 MOL     0.0824
     26 C8        -21.0970   -2.3431   18.8259 C.3       1 MOL     0.0553
     27 C9        -22.1791   -2.5728   19.8507 C.3       1 MOL    -0.0191
     28 BR1       -16.7322    1.4052   16.9033 Br        1 MOL    -0.0928
     29 H1        -22.7179    0.9049   17.0565 H         1 MOL     0.2183
@<TRIPOS>BOND
     1   24   23 1 
     2   24   28 1 
     3   18   16 1 
     4   23   22 1 
     5   22   21 1 
     6   21   20 1 
     7   20   17 1 
     8   17   16 1 
     9   16   19 1 
    10   16    5 1 
    11    4    5 ar
    12    4    1 ar
    13    5    8 ar
    14    2    1 1 
    15    1    6 ar
    16    8   25 ar
    17    6   25 ar
    18    6   12 1 
    19   11   10 1 
    20   11   12 1 
    21   15   10 1 
    22   25    3 1 
    23   10    9 2 
    24   12   26 1 
    25    3    7 1 
    26   26    7 1 
    27   26   27 1 
    28    9   27 1 
    29    7   14 1 
    30    7   13 1 
    31   29    2 1 
@<TRIPOS>SUBSTRUCTURE
1 MOL         1
@<TRIPOS>MOLECULE
query molecule
   29    31     1     0     0
SMALL
NO_CHARGE

@<TRIPOS>ATOM
      1 C1        -24.9558   -1.7599   17.2857 C.ar      1 MOL     0.0780
      2 O1        -25.5353   -2.9748   17.5166 O.3       1 MOL    -0.3605
      3 O2        -22.6553    0.5096   18.8917 O.3       1 MOL    -0.3392
      4 C2        -25.2468   -1.0944   16.1037 C.ar      1 MOL     0.0376
      5 C3        -24.6659    0.1372   15.8527 C.ar      1 MOL    -0.0372
      6 C5        -24.0708   -1.2040   18.2324 C.ar      1 MOL     0.0200
      7 C6        -22.1087   -0.2335   20.0328 C.3       1 MOL     0.0764
      8 C4        -23.8353    0.6812   16.8197 C.ar      1 MOL     0.0379
      9 C10       -23.7827   -2.6328   22.1573 C.2       1 MOL     0.0030
     10 C11       -24.9578   -2.7272   21.4129 C.2       1 MOL    -0.0365
     11 C12       -25.0526   -2.1174   20.1487 C.3       1 MOL    -0.0105
     12 C13       -23.7083   -1.8059   19.4472 C.3       1 MOL     0.0574
     13 C14       -21.5433    0.7606   21.0482 C.3       1 MOL     0.0431
     14 C15       -20.9985   -1.1811   19.5618 C.3       1 MOL     0.0431
     15 C16       -26.0435   -3.4313   21.9244 C.3       1 MOL     0.0167
     16 C17       -24.9216    0.8346   14.6665 C.3       1 MOL    -0.0102
     17 C18       -25.1144    2.3368   14.8975 C.3       1 MOL     0.0110
     18 C19       -26.1932    0.2863   14.0211 C.3       1 MOL     0.0159
     19 C20       -23.7553    0.6156   13.7058 C.3       1 MOL     0.0159
     20 C21       -26.2367    2.8905   14.0166 C.3       1 MOL     0.0009
     21 C22       -26.7111    4.2292   14.5868 C.3       1 MOL     0.0002
     22 C23       -28.0740    4.0409   15.2632 C.3       1 MOL     0.0009
     23 C24       -29.1140    4.9202   14.5660 C.3       1 MOL     0.0115
     24 C25       -30.1300    4.0662   13.7961 C.3       1 MOL     0.0805
     25 C7        -23.3393   -0.0577   17.8712 C.ar      1 MOL     0.0824
     26 C8        -23.2548   -0.9121   20.5846 C.3       1 MOL     0.0553
     27 C9        -22.7398   -1.9171   21.5840 C.3       1 MOL    -0.0191
     28 BR1       -29.3174    2.4743   13.0327 Br        1 MOL    -0.0928
     29 H1        -25.6535   -3.4363   16.6833 H         1 MOL     0.2183
@<TRIPOS>BOND
     1   24   23 1 
     2   24   28 1 
     3   18   16 1 
     4   23   22 1 
     5   22   21 1 
     6   21   20 1 
     7   20   17 1 
     8   17   16 1 
     9   16   19 1 
    10   16    5 1 
    11    4    5 ar
    12    4    1 ar
    13    5    8 ar
    14    2    1 1 
    15    1    6 ar
    16    8   25 ar
    17    6   25 ar
    18    6   12 1 
    19   11   10 1 
    20   11   12 1 
    21   15   10 1 
    22   25    3 1 
    23   10    9 2 
    24   12   26 1 
    25    3    7 1 
    26   26    7 1 
    27   26   27 1 
    28    9   27 1 
    29    7   14 1 
    30    7   13 1 
    31   29    2 1 
@<TRIPOS>SUBSTRUCTURE
1 MOL         1
@<TRIPOS>MOLECULE
query molecule
   29    31     1     0     0
SMALL
NO_CHARGE

@<TRIPOS>ATOM
      1 C1        -36.2032   13.8143   17.2578 C.ar      1 MOL     0.0780
      2 O1        -37.1783   14.3814   16.4878 O.3       1 MOL    -0.3605
      3 O2        -32.9417   12.3223   16.8596 O.3       1 MOL    -0.3392
      4 C2        -36.3951   13.7376   18.6296 C.ar      1 MOL     0.0376
      5 C3        -35.4155   13.1678   19.4253 C.ar      1 MOL    -0.0372
      6 C5        -35.0215   13.3273   16.6620 C.ar      1 MOL     0.0200
      7 C6        -32.5590   12.5894   15.4685 C.3       1 MOL     0.0764
      8 C4        -34.2840   12.6566   18.8094 C.ar      1 MOL     0.0379
      9 C10       -34.6754   12.6884   12.5388 C.2       1 MOL     0.0030
     10 C11       -35.8954   12.5998   13.2081 C.2       1 MOL    -0.0365
     11 C12       -35.9478   12.6903   14.6110 C.3       1 MOL    -0.0105
     12 C13       -34.7341   13.3711   15.2892 C.3       1 MOL     0.0574
     13 C14       -31.4742   11.5951   15.0520 C.3       1 MOL     0.0431
     14 C15       -32.0284   14.0221   15.3334 C.3       1 MOL     0.0431
     15 C16       -37.0691   12.4224   12.4821 C.3       1 MOL     0.0167
     16 C17       -35.5633   13.0841   20.8145 C.3       1 MOL    -0.0102
     17 C18       -36.7046   12.1500   21.2291 C.3       1 MOL     0.0110
     18 C19       -35.8589   14.4738   21.3765 C.3       1 MOL     0.0159
     19 C20       -34.2539   12.5833   21.4194 C.3       1 MOL     0.0159
     20 C21       -36.2254   10.6992   21.3164 C.3       1 MOL     0.0009
     21 C22       -35.8507   10.3786   22.7653 C.3       1 MOL     0.0002
     22 C23       -36.7604   11.1680   23.7138 C.3       1 MOL     0.0009
     23 C24       -38.0158   10.3472   24.0156 C.3       1 MOL     0.0115
     24 C25       -37.9881    9.8061   25.4511 C.3       1 MOL     0.0805
     25 C7        -33.9602   12.9407   17.5009 C.ar      1 MOL     0.0824
     26 C8        -33.7696   12.3469   14.7241 C.3       1 MOL     0.0553
     27 C9        -33.5460   12.8675   13.3266 C.3       1 MOL    -0.0191
     28 BR1       -37.6394   11.2061   26.7534 Br        1 MOL    -0.0928
     29 H1        -38.0363   14.2152   16.8846 H         1 MOL     0.2183
@<TRIPOS>BOND
     1   24   23 1 
     2   24   28 1 
     3   18   16 1 
     4   23   22 1 
     5   22   21 1 
     6   21   20 1 
     7   20   17 1 
     8   17   16 1 
     9   16   19 1 
    10   16    5 1 
    11    4    5 ar
    12    4    1 ar
    13    5    8 ar
    14    2    1 1 
    15    1    6 ar
    16    8   25 ar
    17    6   25 ar
    18    6   12 1 
    19   11   10 1 
    20   11   12 1 
    21   15   10 1 
    22   25    3 1 
    23   10    9 2 
    24   12   26 1 
    25    3    7 1 
    26   26    7 1 
    27   26   27 1 
    28    9   27 1 
    29    7   14 1 
    30    7   13 1 
    31   29    2 1 
@<TRIPOS>SUBSTRUCTURE
1 MOL         1
@<TRIPOS>MOLECULE
query molecule
   29    31     1     0     0
SMALL
NO_CHARGE

@<TRIPOS>ATOM
      1 C1        -22.6968    1.6070   14.9216 C.ar      1 MOL     0.0780
      2 O1        -21.9182    2.4587   14.1911 O.3       1 MOL    -0.3605
      3 O2        -22.3947   -1.5314   16.6769 O.3       1 MOL    -0.3392
      4 C2        -24.0262    1.9382   15.1401 C.ar      1 MOL     0.0376
      5 C3        -24.8291    1.0871   15.8807 C.ar      1 MOL    -0.0372
      6 C5        -22.1487    0.4197   15.4491 C.ar      1 MOL     0.0200
      7 C6        -20.9573   -1.8255   16.7034 C.3       1 MOL     0.0764
      8 C4        -24.2771   -0.0947   16.3493 C.ar      1 MOL     0.0379
      9 C10       -18.4784   -1.1320   14.1645 C.2       1 MOL     0.0030
     10 C11       -19.2949   -0.3634   13.3359 C.2       1 MOL    -0.0365
     11 C12       -20.5780    0.0265   13.7613 C.3       1 MOL    -0.0105
     12 C13       -20.8168    0.0072   15.2907 C.3       1 MOL     0.0574
     13 C14       -20.7609   -3.3221   16.9489 C.3       1 MOL     0.0431
     14 C15       -20.2755   -1.0234   17.8188 C.3       1 MOL     0.0431
     15 C16       -18.8359    0.0217   12.0801 C.3       1 MOL     0.0167
     16 C17       -26.1711    1.3910   16.1365 C.3       1 MOL    -0.0102
     17 C18       -26.7109    0.6714   17.3766 C.3       1 MOL     0.0110
     18 C19       -27.0217    0.9743   14.9377 C.3       1 MOL     0.0159
     19 C20       -26.3062    2.8998   16.3277 C.3       1 MOL     0.0159
     20 C21       -26.2686    1.3778   18.6601 C.3       1 MOL     0.0009
     21 C22       -24.7464    1.2842   18.7881 C.3       1 MOL     0.0002
     22 C23       -24.3669   -0.0822   19.3707 C.3       1 MOL     0.0009
     23 C24       -22.8776   -0.0903   19.7209 C.3       1 MOL     0.0115
     24 C25       -22.4463   -1.4602   20.2607 C.3       1 MOL     0.0805
     25 C7        -22.9189   -0.3244   16.3616 C.ar      1 MOL     0.0824
     26 C8        -20.5081   -1.4744   15.3792 C.3       1 MOL     0.0553
     27 C9        -19.0004   -1.4775   15.4040 C.3       1 MOL    -0.0191
     28 BR1       -23.4114   -2.9176   19.4110 Br        1 MOL    -0.0928
     29 H1        -22.2879    3.3435   14.2307 H         1 MOL     0.2183
@<TRIPOS>BOND
     1   24   23 1 
     2   24   28 1 
     3   18   16 1 
     4   23   22 1 
     5   22   21 1 
     6   21   20 1 
     7   20   17 1 
     8   17   16 1 
     9   16   19 1 
    10   16    5 1 
    11    4    5 ar
    12    4    1 ar
    13    5    8 ar
    14    2    1 1 
    15    1    6 ar
    16    8   25 ar
    17    6   25 ar
    18    6   12 1 
    19   11   10 1 
    20   11   12 1 
    21   15   10 1 
    22   25    3 1 
    23   10    9 2 
    24   12   26 1 
    25    3    7 1 
    26   26    7 1 
    27   26   27 1 
    28    9   27 1 
    29    7   14 1 
    30    7   13 1 
    31   29    2 1 
@<TRIPOS>SUBSTRUCTURE
1 MOL         1
@<TRIPOS>MOLECULE
query molecule
   29    31     1     0     0
SMALL
NO_CHARGE

@<TRIPOS>ATOM
      1 C1        -36.7609    9.9077   16.9701 C.ar      1 MOL     0.0780
      2 O1        -37.1228    8.7139   17.5259 O.3       1 MOL    -0.3605
      3 O2        -36.0932   11.3030   13.7097 O.3       1 MOL    -0.3392
      4 C2        -36.5726   11.0022   17.8014 C.ar      1 MOL     0.0376
      5 C3        -36.2078   12.2207   17.2540 C.ar      1 MOL    -0.0372
      6 C5        -36.5937   10.0194   15.5743 C.ar      1 MOL     0.0200
      7 C6        -36.5119   10.2726   12.7525 C.3       1 MOL     0.0764
      8 C4        -36.0064   12.2918   15.8846 C.ar      1 MOL     0.0379
      9 C10       -36.2615    6.6799   13.0710 C.2       1 MOL     0.0030
     10 C11       -35.8571    6.6559   14.4052 C.2       1 MOL    -0.0365
     11 C12       -35.8622    7.8342   15.1736 C.3       1 MOL    -0.0105
     12 C13       -36.7724    8.9741   14.6552 C.3       1 MOL     0.0574
     13 C14       -35.8204   10.5289   11.4127 C.3       1 MOL     0.0431
     14 C15       -38.0337   10.3130   12.5665 C.3       1 MOL     0.0431
     15 C16       -35.4474    5.4569   14.9802 C.3       1 MOL     0.0167
     16 C17       -36.0222   13.3528   18.0557 C.3       1 MOL    -0.0102
     17 C18       -35.0962   13.0845   19.2464 C.3       1 MOL     0.0110
     18 C19       -37.3732   13.8149   18.5993 C.3       1 MOL     0.0159
     19 C20       -35.4342   14.4714   17.1990 C.3       1 MOL     0.0159
     20 C21       -34.2260   11.8498   19.0008 C.3       1 MOL     0.0009
     21 C22       -33.0524   11.8569   19.9832 C.3       1 MOL     0.0002
     22 C23       -33.4844   12.5345   21.2887 C.3       1 MOL     0.0009
     23 C24       -32.7520   13.8697   21.4359 C.3       1 MOL     0.0115
     24 C25       -32.1710   14.0264   22.8473 C.3       1 MOL     0.0805
     25 C7        -36.4237   11.3022   15.0219 C.ar      1 MOL     0.0824
     26 C8        -36.0313    9.0442   13.3345 C.3       1 MOL     0.0553
     27 C9        -36.6594    7.9100   12.5643 C.3       1 MOL    -0.0191
     28 BR1       -30.2800   14.4739   22.8138 Br        1 MOL    -0.0928
     29 H1        -38.0426    8.7532   17.7973 H         1 MOL     0.2183
@<TRIPOS>BOND
     1   24   23 1 
     2   24   28 1 
     3   18   16 1 
     4   23   22 1 
     5   22   21 1 
     6   21   20 1 
     7   20   17 1 
     8   17   16 1 
     9   16   19 1 
    10   16    5 1 
    11    4    5 ar
    12    4    1 ar
    13    5    8 ar
    14    2    1 1 
    15    1    6 ar
    16    8   25 ar
    17    6   25 ar
    18    6   12 1 
    19   11   10 1 
    20   11   12 1 
    21   15   10 1 
    22   25    3 1 
    23   10    9 2 
    24   12   26 1 
    25    3    7 1 
    26   26    7 1 
    27   26   27 1 
    28    9   27 1 
    29    7   14 1 
    30    7   13 1 
    31   29    2 1 
@<TRIPOS>SUBSTRUCTURE
1 MOL         1
@<TRIPOS>MOLECULE
query molecule
   29    31     1     0     0
SMALL
NO_CHARGE

@<TRIPOS>ATOM
      1 C1        -20.7860    0.5794   17.2227 C.ar      1 MOL     0.0780
      2 O1        -21.5269    1.4741   17.9408 O.3       1 MOL    -0.3605
      3 O2        -20.4119   -2.9934   16.8803 O.3       1 MOL    -0.3392
      4 C2        -19.8688    1.0599   16.2995 C.ar      1 MOL     0.0376
      5 C3        -19.1111    0.1664   15.5612 C.ar      1 MOL    -0.0372
      6 C5        -20.9638   -0.8062   17.4153 C.ar      1 MOL     0.0200
      7 C6        -21.5218   -3.5756   17.6435 C.3       1 MOL     0.0764
      8 C4        -19.2736   -1.1887   15.8022 C.ar      1 MOL     0.0379
      9 C10       -23.0026   -2.3783   20.7169 C.2       1 MOL     0.0030
     10 C11       -22.3247   -1.1610   20.7686 C.2       1 MOL    -0.0365
     11 C12       -21.5430   -0.7329   19.6802 C.3       1 MOL    -0.0105
     12 C13       -21.8721   -1.3846   18.3151 C.3       1 MOL     0.0574
     13 C14       -21.1792   -5.0250   17.9912 C.3       1 MOL     0.0431
     14 C15       -22.8115   -3.5323   16.8147 C.3       1 MOL     0.0431
     15 C16       -22.4241   -0.3638   21.9047 C.3       1 MOL     0.0167
     16 C17       -18.1854    0.6093   14.6095 C.3       1 MOL    -0.0102
     17 C18       -18.4543    0.0336   13.2154 C.3       1 MOL     0.0110
     18 C19       -16.7803    0.1863   15.0351 C.3       1 MOL     0.0159
     19 C20       -18.2360    2.1340   14.5461 C.3       1 MOL     0.0159
     20 C21       -19.9470   -0.2318   13.0071 C.3       1 MOL     0.0009
     21 C22       -20.7526    0.9245   13.6041 C.3       1 MOL     0.0002
     22 C23       -21.8615    0.3632   14.5018 C.3       1 MOL     0.0009
     23 C24       -23.1786    1.0766   14.1902 C.3       1 MOL     0.0115
     24 C25       -24.1935    0.8789   15.3238 C.3       1 MOL     0.0805
     25 C7        -20.3370   -1.6915   16.5192 C.ar      1 MOL     0.0824
     26 C8        -21.5752   -2.7750   18.8414 C.3       1 MOL     0.0553
     27 C9        -22.8599   -3.1200   19.5517 C.3       1 MOL    -0.0191
     28 BR1       -25.7124    2.0808   15.1628 Br        1 MOL    -0.0928
     29 H1        -21.0053    2.2631   18.1044 H         1 MOL     0.2183
@<TRIPOS>BOND
     1   24   23 1 
     2   24   28 1 
     3   18   16 1 
     4   23   22 1 
     5   22   21 1 
     6   21   20 1 
     7   20   17 1 
     8   17   16 1 
     9   16   19 1 
    10   16    5 1 
    11    4    5 ar
    12    4    1 ar
    13    5    8 ar
    14    2    1 1 
    15    1    6 ar
    16    8   25 ar
    17    6   25 ar
    18    6   12 1 
    19   11   10 1 
    20   11   12 1 
    21   15   10 1 
    22   25    3 1 
    23   10    9 2 
    24   12   26 1 
    25    3    7 1 
    26   26    7 1 
    27   26   27 1 
    28    9   27 1 
    29    7   14 1 
    30    7   13 1 
    31   29    2 1 
@<TRIPOS>SUBSTRUCTURE
1 MOL         1
@<TRIPOS>MOLECULE
query molecule
   29    31     1     0     0
SMALL
NO_CHARGE

@<TRIPOS>ATOM
      1 C1        -24.7611    0.4203   14.4513 C.ar      1 MOL     0.0780
      2 O1        -24.9971    0.4313   13.1062 O.3       1 MOL    -0.3605
      3 O2        -26.0145    1.9895   17.4494 O.3       1 MOL    -0.3392
      4 C2        -23.7717   -0.4150   14.9494 C.ar      1 MOL     0.0376
      5 C3        -23.5211   -0.4403   16.3110 C.ar      1 MOL    -0.0372
      6 C5        -25.5210    1.2387   15.3122 C.ar      1 MOL     0.0200
      7 C6        -27.2291    2.7021   17.0368 C.3       1 MOL     0.0764
      8 C4        -24.2515    0.4069   17.1293 C.ar      1 MOL     0.0379
      9 C10       -27.8819    4.4004   13.9124 C.2       1 MOL     0.0030
     10 C11       -26.7358    3.9717   13.2440 C.2       1 MOL    -0.0365
     11 C12       -25.8989    2.9963   13.8161 C.3       1 MOL    -0.0105
     12 C13       -26.5466    2.1049   14.9033 C.3       1 MOL     0.0574
     13 C14       -27.5430    3.7870   18.0680 C.3       1 MOL     0.0431
     14 C15       -28.4065    1.7241   16.9386 C.3       1 MOL     0.0431
     15 C16       -26.4193    4.5120   12.0014 C.3       1 MOL     0.0167
     16 C17       -22.5420   -1.2791   16.8557 C.3       1 MOL    -0.0102
     17 C18       -22.4815   -1.1968   18.3843 C.3       1 MOL     0.0110
     18 C19       -21.1731   -0.8837   16.3042 C.3       1 MOL     0.0159
     19 C20       -22.8380   -2.7173   16.4373 C.3       1 MOL     0.0159
     20 C21       -23.5270   -2.1108   19.0274 C.3       1 MOL     0.0009
     21 C22       -23.9891   -1.4954   20.3503 C.3       1 MOL     0.0002
     22 C23       -23.7479   -2.4936   21.4887 C.3       1 MOL     0.0009
     23 C24       -22.8673   -1.8435   22.5576 C.3       1 MOL     0.0115
     24 C25       -21.5444   -1.3510   21.9565 C.3       1 MOL     0.0805
     25 C7        -25.3918    1.0501   16.7005 C.ar      1 MOL     0.0824
     26 C8        -26.8670    3.3019   15.7768 C.3       1 MOL     0.0553
     27 C9        -28.1365    3.8165   15.1464 C.3       1 MOL    -0.0191
     28 BR1       -20.7899   -2.6304   20.7030 Br        1 MOL    -0.0928
     29 H1        -25.4967   -0.3512   12.8626 H         1 MOL     0.2183
@<TRIPOS>BOND
     1   24   23 1 
     2   24   28 1 
     3   18   16 1 
     4   23   22 1 
     5   22   21 1 
     6   21   20 1 
     7   20   17 1 
     8   17   16 1 
     9   16   19 1 
    10   16    5 1 
    11    4    5 ar
    12    4    1 ar
    13    5    8 ar
    14    2    1 1 
    15    1    6 ar
    16    8   25 ar
    17    6   25 ar
    18    6   12 1 
    19   11   10 1 
    20   11   12 1 
    21   15   10 1 
    22   25    3 1 
    23   10    9 2 
    24   12   26 1 
    25    3    7 1 
    26   26    7 1 
    27   26   27 1 
    28    9   27 1 
    29    7   14 1 
    30    7   13 1 
    31   29    2 1 
@<TRIPOS>SUBSTRUCTURE
1 MOL         1
@<TRIPOS>MOLECULE
query molecule
   29    31     1     0     0
SMALL
NO_CHARGE

@<TRIPOS>ATOM
      1 C1        -18.0976    0.8140   17.1898 C.ar      1 MOL     0.0780
      2 O1        -17.5458    0.3439   18.3472 O.3       1 MOL    -0.3605
      3 O2        -17.9875    3.7714   15.1248 O.3       1 MOL    -0.3392
      4 C2        -18.9763    0.0002   16.4895 C.ar      1 MOL     0.0376
      5 C3        -19.5429    0.4604   15.3128 C.ar      1 MOL    -0.0372
      6 C5        -17.7668    2.1007   16.7169 C.ar      1 MOL     0.0200
      7 C6        -16.8907    4.5826   15.6654 C.3       1 MOL     0.0764
      8 C4        -19.2356    1.7455   14.8943 C.ar      1 MOL     0.0379
      9 C10       -15.8690    4.9620   19.1127 C.2       1 MOL     0.0030
     10 C11       -16.6957    3.9731   19.6443 C.2       1 MOL    -0.0365
     11 C12       -17.4184    3.1150   18.7954 C.3       1 MOL    -0.0105
     12 C13       -16.8826    2.9886   17.3486 C.3       1 MOL     0.0574
     13 C14       -17.0806    6.0337   15.2213 C.3       1 MOL     0.0431
     14 C15       -15.5439    4.0561   15.1543 C.3       1 MOL     0.0431
     15 C16       -16.8049    3.8337   21.0244 C.3       1 MOL     0.0167
     16 C17       -20.4224   -0.3342   14.5687 C.3       1 MOL    -0.0102
     17 C18       -21.3639    0.4954   13.6898 C.3       1 MOL     0.0110
     18 C19       -21.2756   -1.1718   15.5199 C.3       1 MOL     0.0159
     19 C20       -19.6075   -1.2779   13.6876 C.3       1 MOL     0.0159
     20 C21       -22.7268   -0.1858   13.5458 C.3       1 MOL     0.0009
     21 C22       -23.7904    0.6616   14.2481 C.3       1 MOL     0.0002
     22 C23       -23.5024    0.6963   15.7535 C.3       1 MOL     0.0009
     23 C24       -24.6423    1.4196   16.4732 C.3       1 MOL     0.0115
     24 C25       -24.7996    0.9063   17.9106 C.3       1 MOL     0.0805
     25 C7        -18.1902    2.4679   15.4264 C.ar      1 MOL     0.0824
     26 C8        -17.0515    4.4735   17.0940 C.3       1 MOL     0.0553
     27 C9        -15.8068    5.0418   17.7278 C.3       1 MOL    -0.0191
     28 BR1       -24.9453   -1.0304   17.9833 Br        1 MOL    -0.0928
     29 H1        -16.6505    0.6787   18.4338 H         1 MOL     0.2183
@<TRIPOS>BOND
     1   24   23 1 
     2   24   28 1 
     3   18   16 1 
     4   23   22 1 
     5   22   21 1 
     6   21   20 1 
     7   20   17 1 
     8   17   16 1 
     9   16   19 1 
    10   16    5 1 
    11    4    5 ar
    12    4    1 ar
    13    5    8 ar
    14    2    1 1 
    15    1    6 ar
    16    8   25 ar
    17    6   25 ar
    18    6   12 1 
    19   11   10 1 
    20   11   12 1 
    21   15   10 1 
    22   25    3 1 
    23   10    9 2 
    24   12   26 1 
    25    3    7 1 
    26   26    7 1 
    27   26   27 1 
    28    9   27 1 
    29    7   14 1 
    30    7   13 1 
    31   29    2 1 
@<TRIPOS>SUBSTRUCTURE
1 MOL         1
@<TRIPOS>MOLECULE
query molecule
   29    31     1     0     0
SMALL
NO_CHARGE

@<TRIPOS>ATOM
      1 C1        -23.0441    1.1326   17.4048 C.ar      1 MOL     0.0780
      2 O1        -21.8358    1.7416   17.5898 O.3       1 MOL    -0.3605
      3 O2        -24.9275   -1.6428   18.7360 O.3       1 MOL    -0.3392
      4 C2        -23.9126    1.6464   16.4528 C.ar      1 MOL     0.0376
      5 C3        -25.1427    1.0425   16.2540 C.ar      1 MOL    -0.0372
      6 C5        -23.3985    0.0084   18.1788 C.ar      1 MOL     0.0200
      7 C6        -24.1815   -2.0875   19.9187 C.3       1 MOL     0.0764
      8 C4        -25.4474   -0.0875   16.9964 C.ar      1 MOL     0.0379
      9 C10       -20.6012   -2.1579   20.4175 C.2       1 MOL     0.0030
     10 C11       -20.2549   -1.4676   19.2565 C.2       1 MOL    -0.0365
     11 C12       -21.2470   -0.8637   18.4627 C.3       1 MOL    -0.0105
     12 C13       -22.5933   -0.5740   19.1696 C.3       1 MOL     0.0574
     13 C14       -24.5836   -3.5258   20.2479 C.3       1 MOL     0.0431
     14 C15       -24.4934   -1.1761   21.1122 C.3       1 MOL     0.0431
     15 C16       -18.9180   -1.3747   18.8822 C.3       1 MOL     0.0167
     16 C17       -26.0538    1.5380   15.3142 C.3       1 MOL    -0.0102
     17 C18       -25.6164    2.8821   14.7233 C.3       1 MOL     0.0110
     18 C19       -27.4141    1.7329   15.9821 C.3       1 MOL     0.0159
     19 C20       -26.2059    0.5161   14.1901 C.3       1 MOL     0.0159
     20 C21       -26.6582    3.4162   13.7377 C.3       1 MOL     0.0009
     21 C22       -27.1375    4.7918   14.2072 C.3       1 MOL     0.0002
     22 C23       -28.6110    4.9757   13.8260 C.3       1 MOL     0.0009
     23 C24       -29.0077    3.9129   12.7995 C.3       1 MOL     0.0115
     24 C25       -29.8609    2.8139   13.4463 C.3       1 MOL     0.0805
     25 C7        -24.7221   -0.4631   18.1058 C.ar      1 MOL     0.0824
     26 C8        -22.8037   -2.0392   19.4969 C.3       1 MOL     0.0553
     27 C9        -21.9532   -2.2081   20.7306 C.3       1 MOL    -0.0191
     28 BR1       -29.5278    1.0697   12.6562 Br        1 MOL    -0.0928
     29 H1        -21.7034    1.9120   18.5251 H         1 MOL     0.2183
@<TRIPOS>BOND
     1   24   23 1 
     2   24   28 1 
     3   18   16 1 
     4   23   22 1 
     5   22   21 1 
     6   21   20 1 
     7   20   17 1 
     8   17   16 1 
     9   16   19 1 
    10   16    5 1 
    11    4    5 ar
    12    4    1 ar
    13    5    8 ar
    14    2    1 1 
    15    1    6 ar
    16    8   25 ar
    17    6   25 ar
    18    6   12 1 
    19   11   10 1 
    20   11   12 1 
    21   15   10 1 
    22   25    3 1 
    23   10    9 2 
    24   12   26 1 
    25    3    7 1 
    26   26    7 1 
    27   26   27 1 
    28    9   27 1 
    29    7   14 1 
    30    7   13 1 
    31   29    2 1 
@<TRIPOS>SUBSTRUCTURE
1 MOL         1
