@<TRIPOS>MOLECULE
query molecule
   29    31     1     0     0
SMALL
NO_CHARGE

@<TRIPOS>ATOM
      1 C1          6.0866   -0.6616  -11.6628 C.ar      1 MOL     0.0780
      2 O1          6.2796   -0.9540  -12.9827 O.3       1 MOL    -0.3605
      3 O2          7.3813    1.5852   -9.1531 O.3       1 MOL    -0.3392
      4 C2          5.1177   -1.3611  -10.9580 C.ar      1 MOL     0.0376
      5 C3          4.9073   -1.0755   -9.6195 C.ar      1 MOL    -0.0372
      6 C5          6.8556    0.3419  -11.0379 C.ar      1 MOL     0.0200
      7 C6          8.2372    2.5292   -9.8806 C.3       1 MOL     0.0764
      8 C4          5.7075   -0.1164   -9.0188 C.ar      1 MOL     0.0379
      9 C10        10.3489    1.8939  -12.7458 C.2       1 MOL     0.0030
     10 C11         9.9100    0.5941  -12.9948 C.2       1 MOL    -0.0365
     11 C12         8.8063    0.0681  -12.2989 C.3       1 MOL    -0.0105
     12 C13         7.8472    1.1077  -11.6699 C.3       1 MOL     0.0574
     13 C14         9.2121    3.1764   -8.8958 C.3       1 MOL     0.0431
     14 C15         7.3799    3.6117  -10.5482 C.3       1 MOL     0.0431
     15 C16        10.5681   -0.1870  -13.9397 C.3       1 MOL     0.0167
     16 C17         3.9302   -1.7476   -8.8764 C.3       1 MOL    -0.0102
     17 C18         4.4593   -2.2527   -7.5302 C.3       1 MOL     0.0110
     18 C19         3.4290   -2.9520   -9.6718 C.3       1 MOL     0.0159
     19 C20         2.7567   -0.8009   -8.6363 C.3       1 MOL     0.0159
     20 C21         5.6731   -3.1649   -7.7222 C.3       1 MOL     0.0009
     21 C22         6.6787   -2.9090   -6.5972 C.3       1 MOL     0.0002
     22 C23         7.1200   -4.2474   -5.9936 C.3       1 MOL     0.0009
     23 C24         8.6399   -4.3807   -6.1076 C.3       1 MOL     0.0115
     24 C25         9.0844   -5.8308   -5.8761 C.3       1 MOL     0.0805
     25 C7          6.4906    0.7550   -9.7434 C.ar      1 MOL     0.0824
     26 C8          8.9525    1.6974  -10.8161 C.3       1 MOL     0.0553
     27 C9          9.6436    2.6159  -11.7921 C.3       1 MOL    -0.0191
     28 BR1        10.7875   -6.2183   -6.7287 Br        1 MOL    -0.0928
     29 H1          5.8386   -0.2954  -13.5241 H         1 MOL     0.2183
@<TRIPOS>BOND
     1   24   23 1 
     2   24   28 1 
     3   18   16 1 
     4   23   22 1 
     5   22   21 1 
     6   21   20 1 
     7   20   17 1 
     8   17   16 1 
     9   16   19 1 
    10   16    5 1 
    11    4    5 ar
    12    4    1 ar
    13    5    8 ar
    14    2    1 1 
    15    1    6 ar
    16    8   25 ar
    17    6   25 ar
    18    6   12 1 
    19   11   10 1 
    20   11   12 1 
    21   15   10 1 
    22   25    3 1 
    23   10    9 2 
    24   12   26 1 
    25    3    7 1 
    26   26    7 1 
    27   26   27 1 
    28    9   27 1 
    29    7   14 1 
    30    7   13 1 
    31   29    2 1 
@<TRIPOS>SUBSTRUCTURE
1 MOL         1
@<TRIPOS>MOLECULE
query molecule
   29    31     1     0     0
SMALL
NO_CHARGE

@<TRIPOS>ATOM
      1 C1          6.8558    0.2815   -9.4202 C.ar      1 MOL     0.0780
      2 O1          7.7663    1.0153   -8.7148 O.3       1 MOL    -0.3605
      3 O2          6.2317   -0.7407  -12.8243 O.3       1 MOL    -0.3392
      4 C2          5.8077   -0.3182   -8.7373 C.ar      1 MOL     0.0376
      5 C3          4.8770   -1.0678   -9.4369 C.ar      1 MOL    -0.0372
      6 C5          6.9919    0.1329  -10.8159 C.ar      1 MOL     0.0200
      7 C6          7.4329   -0.3537  -13.5730 C.3       1 MOL     0.0764
      8 C4          5.0089   -1.1604  -10.8134 C.ar      1 MOL     0.0379
      9 C10         9.5309    2.5530  -13.1020 C.2       1 MOL     0.0030
     10 C11         8.9416    2.9973  -11.9190 C.2       1 MOL    -0.0365
     11 C12         7.9922    2.2016  -11.2521 C.3       1 MOL    -0.0105
     12 C13         8.0215    0.6910  -11.5890 C.3       1 MOL     0.0574
     13 C14         7.0846   -0.2654  -15.0596 C.3       1 MOL     0.0431
     14 C15         8.5429   -1.3906  -13.3614 C.3       1 MOL     0.0431
     15 C16         9.2970    4.2360  -11.3943 C.3       1 MOL     0.0167
     16 C17         3.8132   -1.7012   -8.7842 C.3       1 MOL    -0.0102
     17 C18         4.2009   -2.2212   -7.3963 C.3       1 MOL     0.0110
     18 C19         3.3408   -2.8887   -9.6215 C.3       1 MOL     0.0159
     19 C20         2.6588   -0.7111   -8.6497 C.3       1 MOL     0.0159
     20 C21         5.3618   -3.2145   -7.4843 C.3       1 MOL     0.0009
     21 C22         6.2481   -3.0648   -6.2455 C.3       1 MOL     0.0002
     22 C23         6.9063   -4.4116   -5.9238 C.3       1 MOL     0.0009
     23 C24         8.3756   -4.3744   -6.3486 C.3       1 MOL     0.0115
     24 C25         9.0050   -5.7718   -6.2772 C.3       1 MOL     0.0805
     25 C7          6.1601   -0.7915  -11.4740 C.ar      1 MOL     0.0824
     26 C8          7.7551    0.9538  -13.0581 C.3       1 MOL     0.0553
     27 C9          9.1304    1.3068  -13.5658 C.3       1 MOL    -0.0191
     28 BR1        10.7512   -5.8314   -7.1285 Br        1 MOL    -0.0928
     29 H1          8.6510    0.8140   -9.0279 H         1 MOL     0.2183
@<TRIPOS>BOND
     1   24   23 1 
     2   24   28 1 
     3   18   16 1 
     4   23   22 1 
     5   22   21 1 
     6   21   20 1 
     7   20   17 1 
     8   17   16 1 
     9   16   19 1 
    10   16    5 1 
    11    4    5 ar
    12    4    1 ar
    13    5    8 ar
    14    2    1 1 
    15    1    6 ar
    16    8   25 ar
    17    6   25 ar
    18    6   12 1 
    19   11   10 1 
    20   11   12 1 
    21   15   10 1 
    22   25    3 1 
    23   10    9 2 
    24   12   26 1 
    25    3    7 1 
    26   26    7 1 
    27   26   27 1 
    28    9   27 1 
    29    7   14 1 
    30    7   13 1 
    31   29    2 1 
@<TRIPOS>SUBSTRUCTURE
1 MOL         1
@<TRIPOS>MOLECULE
query molecule
   29    31     1     0     0
SMALL
NO_CHARGE

@<TRIPOS>ATOM
      1 C1          5.9207   -0.6189  -13.3873 C.ar      1 MOL     0.0780
      2 O1          5.2274   -0.6532  -14.5634 O.3       1 MOL    -0.3605
      3 O2          9.3026   -0.1167  -12.2329 O.3       1 MOL    -0.3392
      4 C2          5.2304   -0.8081  -12.1989 C.ar      1 MOL     0.0376
      5 C3          5.9176   -0.7741  -10.9972 C.ar      1 MOL    -0.0372
      6 C5          7.3113   -0.3848  -13.3894 C.ar      1 MOL     0.0200
      7 C6         10.0523    0.3359  -13.4102 C.3       1 MOL     0.0764
      8 C4          7.2905   -0.5870  -11.0306 C.ar      1 MOL     0.0379
      9 C10         9.6390   -0.6732  -16.8574 C.2       1 MOL     0.0030
     10 C11         8.4716   -1.4142  -16.6782 C.2       1 MOL    -0.0365
     11 C12         7.7918   -1.3879  -15.4469 C.3       1 MOL    -0.0105
     12 C13         8.0908   -0.1720  -14.5367 C.3       1 MOL     0.0574
     13 C14        11.5430    0.0875  -13.1756 C.3       1 MOL     0.0431
     14 C15         9.8072    1.8310  -13.6487 C.3       1 MOL     0.0431
     15 C16         7.9754   -2.1836  -17.7260 C.3       1 MOL     0.0167
     16 C17         5.2569   -0.9457   -9.7754 C.3       1 MOL    -0.0102
     17 C18         5.1712    0.3522   -8.9659 C.3       1 MOL     0.0110
     18 C19         6.0052   -1.9802   -8.9364 C.3       1 MOL     0.0159
     19 C20         3.8478   -1.4670  -10.0470 C.3       1 MOL     0.0159
     20 C21         6.4296    1.2028   -9.1533 C.3       1 MOL     0.0009
     21 C22         6.0721    2.6793   -8.9678 C.3       1 MOL     0.0002
     22 C23         6.6514    3.4940  -10.1301 C.3       1 MOL     0.0009
     23 C24         8.1196    3.1157  -10.3349 C.3       1 MOL     0.0115
     24 C25         8.9596    3.4825   -9.1044 C.3       1 MOL     0.0805
     25 C7          7.9520   -0.1530  -12.1584 C.ar      1 MOL     0.0824
     26 C8          9.5678   -0.5079  -14.4741 C.3       1 MOL     0.0553
     27 C9         10.0745    0.0730  -15.7702 C.3       1 MOL    -0.0191
     28 BR1        10.8485    3.1110   -9.3716 Br        1 MOL    -0.0928
     29 H1          4.2868   -0.5932  -14.3821 H         1 MOL     0.2183
@<TRIPOS>BOND
     1   24   23 1 
     2   24   28 1 
     3   18   16 1 
     4   23   22 1 
     5   22   21 1 
     6   21   20 1 
     7   20   17 1 
     8   17   16 1 
     9   16   19 1 
    10   16    5 1 
    11    4    5 ar
    12    4    1 ar
    13    5    8 ar
    14    2    1 1 
    15    1    6 ar
    16    8   25 ar
    17    6   25 ar
    18    6   12 1 
    19   11   10 1 
    20   11   12 1 
    21   15   10 1 
    22   25    3 1 
    23   10    9 2 
    24   12   26 1 
    25    3    7 1 
    26   26    7 1 
    27   26   27 1 
    28    9   27 1 
    29    7   14 1 
    30    7   13 1 
    31   29    2 1 
@<TRIPOS>SUBSTRUCTURE
1 MOL         1
@<TRIPOS>MOLECULE
query molecule
   29    31     1     0     0
SMALL
NO_CHARGE

@<TRIPOS>ATOM
      1 C1          7.1585    0.1078  -10.1744 C.ar      1 MOL     0.0780
      2 O1          7.7185    0.6427   -9.0495 O.3       1 MOL    -0.3605
      3 O2          4.2915   -1.8729  -11.1120 O.3       1 MOL    -0.3392
      4 C2          7.7740    0.3298  -11.3977 C.ar      1 MOL     0.0376
      5 C3          7.2182   -0.2032  -12.5485 C.ar      1 MOL    -0.0372
      6 C5          5.9704   -0.6466  -10.0863 C.ar      1 MOL     0.0200
      7 C6          3.4550   -1.9405   -9.9083 C.3       1 MOL     0.0764
      8 C4          6.0754   -0.9781  -12.4281 C.ar      1 MOL     0.0379
      9 C10         4.5055   -2.1257   -6.4537 C.2       1 MOL     0.0030
     10 C11         5.8646   -1.9100   -6.6782 C.2       1 MOL    -0.0365
     11 C12         6.3270   -1.5391   -7.9540 C.3       1 MOL    -0.0105
     12 C13         5.2720   -0.9141   -8.8988 C.3       1 MOL     0.0574
     13 C14         2.5117   -3.1386  -10.0256 C.3       1 MOL     0.0431
     14 C15         2.6387   -0.6506   -9.7604 C.3       1 MOL     0.0431
     15 C16         6.7690   -2.0615   -5.6317 C.3       1 MOL     0.0167
     16 C17         7.7994    0.0094  -13.8038 C.3       1 MOL    -0.0102
     17 C18         8.3710    1.4227  -13.9554 C.3       1 MOL     0.0110
     18 C19         6.7454   -0.1957  -14.8907 C.3       1 MOL     0.0159
     19 C20         8.9148   -1.0127  -14.0091 C.3       1 MOL     0.0159
     20 C21         9.6291    1.6028  -13.1028 C.3       1 MOL     0.0009
     21 C22         9.7917    3.0834  -12.7509 C.3       1 MOL     0.0002
     22 C23         9.4718    3.2925  -11.2662 C.3       1 MOL     0.0009
     23 C24        10.6046    4.0823  -10.6077 C.3       1 MOL     0.0115
     24 C25        10.8959    3.5549   -9.1967 C.3       1 MOL     0.0805
     25 C7          5.3159   -1.0047  -11.2791 C.ar      1 MOL     0.0824
     26 C8          4.4009   -2.1536   -8.8413 C.3       1 MOL     0.0553
     27 C9          3.6610   -1.9542   -7.5426 C.3       1 MOL    -0.0191
     28 BR1         9.2945    3.4846   -8.0975 Br        1 MOL    -0.0928
     29 H1          7.9368    1.5638   -9.2078 H         1 MOL     0.2183
@<TRIPOS>BOND
     1   24   23 1 
     2   24   28 1 
     3   18   16 1 
     4   23   22 1 
     5   22   21 1 
     6   21   20 1 
     7   20   17 1 
     8   17   16 1 
     9   16   19 1 
    10   16    5 1 
    11    4    5 ar
    12    4    1 ar
    13    5    8 ar
    14    2    1 1 
    15    1    6 ar
    16    8   25 ar
    17    6   25 ar
    18    6   12 1 
    19   11   10 1 
    20   11   12 1 
    21   15   10 1 
    22   25    3 1 
    23   10    9 2 
    24   12   26 1 
    25    3    7 1 
    26   26    7 1 
    27   26   27 1 
    28    9   27 1 
    29    7   14 1 
    30    7   13 1 
    31   29    2 1 
@<TRIPOS>SUBSTRUCTURE
1 MOL         1
@<TRIPOS>MOLECULE
query molecule
   29    31     1     0     0
SMALL
NO_CHARGE

@<TRIPOS>ATOM
      1 C1          7.1411    0.3106   -9.1071 C.ar      1 MOL     0.0780
      2 O1          7.4231    0.6710   -7.8203 O.3       1 MOL    -0.3605
      3 O2          4.7282   -1.6737  -10.9134 O.3       1 MOL    -0.3392
      4 C2          7.9432    0.7981  -10.1287 C.ar      1 MOL     0.0376
      5 C3          7.6698    0.4446  -11.4393 C.ar      1 MOL    -0.0372
      6 C5          6.0463   -0.5338   -9.3843 C.ar      1 MOL     0.0200
      7 C6          3.6970   -2.0227   -9.9295 C.3       1 MOL     0.0764
      8 C4          6.6156   -0.4224  -11.6797 C.ar      1 MOL     0.0379
      9 C10         4.1081   -2.7578   -6.4134 C.2       1 MOL     0.0030
     10 C11         5.4536   -2.4038   -6.3225 C.2       1 MOL    -0.0365
     11 C12         6.0996   -1.7722   -7.4008 C.3       1 MOL    -0.0105
     12 C13         5.1748   -1.0655   -8.4215 C.3       1 MOL     0.0574
     13 C14         2.9274   -3.2462  -10.4293 C.3       1 MOL     0.0431
     14 C15         2.7320   -0.8463   -9.7372 C.3       1 MOL     0.0431
     15 C16         6.1612   -2.6761   -5.1558 C.3       1 MOL     0.0167
     16 C17         8.4453    0.9261  -12.5002 C.3       1 MOL    -0.0102
     17 C18         8.9801    2.3387  -12.2439 C.3       1 MOL     0.0110
     18 C19         7.5977    0.9625  -13.7709 C.3       1 MOL     0.0159
     19 C20         9.6175   -0.0261  -12.7247 C.3       1 MOL     0.0159
     20 C21        10.0064    2.3420  -11.1086 C.3       1 MOL     0.0009
     21 C22        10.0660    3.7394  -10.4872 C.3       1 MOL     0.0002
     22 C23        10.8689    4.6707  -11.4029 C.3       1 MOL     0.0009
     23 C24        12.2034    5.0124  -10.7375 C.3       1 MOL     0.0115
     24 C25        13.0439    5.9343  -11.6306 C.3       1 MOL     0.0805
     25 C7          5.6652   -0.7155  -10.7264 C.ar      1 MOL     0.0824
     26 C8          4.4481   -2.3561   -8.7448 C.3       1 MOL     0.0553
     27 C9          3.4647   -2.4536   -7.6058 C.3       1 MOL    -0.0191
     28 BR1        12.1356    7.6099  -12.0117 Br        1 MOL    -0.0928
     29 H1          8.3065    1.0439   -7.7789 H         1 MOL     0.2183
@<TRIPOS>BOND
     1   24   23 1 
     2   24   28 1 
     3   18   16 1 
     4   23   22 1 
     5   22   21 1 
     6   21   20 1 
     7   20   17 1 
     8   17   16 1 
     9   16   19 1 
    10   16    5 1 
    11    4    5 ar
    12    4    1 ar
    13    5    8 ar
    14    2    1 1 
    15    1    6 ar
    16    8   25 ar
    17    6   25 ar
    18    6   12 1 
    19   11   10 1 
    20   11   12 1 
    21   15   10 1 
    22   25    3 1 
    23   10    9 2 
    24   12   26 1 
    25    3    7 1 
    26   26    7 1 
    27   26   27 1 
    28    9   27 1 
    29    7   14 1 
    30    7   13 1 
    31   29    2 1 
@<TRIPOS>SUBSTRUCTURE
1 MOL         1
@<TRIPOS>MOLECULE
query molecule
   29    31     1     0     0
SMALL
NO_CHARGE

@<TRIPOS>ATOM
      1 C1          7.4070    0.5635   -9.5961 C.ar      1 MOL     0.0780
      2 O1          8.1094    1.3191   -8.7012 O.3       1 MOL    -0.3605
      3 O2          7.6007   -0.4411  -13.0566 O.3       1 MOL    -0.3392
      4 C2          6.2535   -0.0780   -9.1688 C.ar      1 MOL     0.0376
      5 C3          5.5306   -0.8501  -10.0626 C.ar      1 MOL    -0.0372
      6 C5          7.8587    0.4349  -10.9257 C.ar      1 MOL     0.0200
      7 C6          8.9255   -0.0065  -13.5142 C.3       1 MOL     0.0764
      8 C4          5.9720   -0.9231  -11.3743 C.ar      1 MOL     0.0379
      9 C10        10.7616    2.9625  -12.5730 C.2       1 MOL     0.0030
     10 C11         9.9062    3.3740  -11.5518 C.2       1 MOL    -0.0365
     11 C12         8.8593    2.5402  -11.1185 C.3       1 MOL    -0.0105
     12 C13         9.0159    1.0351  -11.4451 C.3       1 MOL     0.0574
     13 C14         8.9179    0.0866  -15.0407 C.3       1 MOL     0.0431
     14 C15         9.9946   -1.0085  -13.0613 C.3       1 MOL     0.0431
     15 C16        10.0913    4.6179  -10.9564 C.3       1 MOL     0.0167
     16 C17         4.3698   -1.5254   -9.6684 C.3       1 MOL    -0.0102
     17 C18         4.2275   -1.6103   -8.1454 C.3       1 MOL     0.0110
     18 C19         4.3997   -2.9489  -10.2227 C.3       1 MOL     0.0159
     19 C20         3.1580   -0.8020  -10.2508 C.3       1 MOL     0.0159
     20 C21         5.3778   -2.4086   -7.5278 C.3       1 MOL     0.0009
     21 C22         5.7093   -1.8311   -6.1498 C.3       1 MOL     0.0002
     22 C23         4.6185   -2.2362   -5.1515 C.3       1 MOL     0.0009
     23 C24         3.9651   -3.5403   -5.6130 C.3       1 MOL     0.0115
     24 C25         2.5189   -3.6397   -5.1102 C.3       1 MOL     0.0805
     25 C7          7.2289   -0.5092  -11.7574 C.ar      1 MOL     0.0824
     26 C8          9.0780    1.3052  -12.9356 C.3       1 MOL     0.0553
     27 C9         10.5193    1.7089  -13.1192 C.3       1 MOL    -0.0191
     28 BR1         1.2506   -2.8936   -6.3800 Br        1 MOL    -0.0928
     29 H1          7.7818    1.1519   -7.8147 H         1 MOL     0.2183
@<TRIPOS>BOND
     1   24   23 1 
     2   24   28 1 
     3   18   16 1 
     4   23   22 1 
     5   22   21 1 
     6   21   20 1 
     7   20   17 1 
     8   17   16 1 
     9   16   19 1 
    10   16    5 1 
    11    4    5 ar
    12    4    1 ar
    13    5    8 ar
    14    2    1 1 
    15    1    6 ar
    16    8   25 ar
    17    6   25 ar
    18    6   12 1 
    19   11   10 1 
    20   11   12 1 
    21   15   10 1 
    22   25    3 1 
    23   10    9 2 
    24   12   26 1 
    25    3    7 1 
    26   26    7 1 
    27   26   27 1 
    28    9   27 1 
    29    7   14 1 
    30    7   13 1 
    31   29    2 1 
@<TRIPOS>SUBSTRUCTURE
1 MOL         1
@<TRIPOS>MOLECULE
query molecule
   29    31     1     0     0
SMALL
NO_CHARGE

@<TRIPOS>ATOM
      1 C1          9.9124    1.9238  -12.9919 C.ar      1 MOL     0.0780
      2 O1         10.7107    3.0297  -12.9219 O.3       1 MOL    -0.3605
      3 O2          7.3501    0.2868  -11.0483 O.3       1 MOL    -0.3392
      4 C2         10.0078    1.1000  -14.1040 C.ar      1 MOL     0.0376
      5 C3          9.2040   -0.0240  -14.1922 C.ar      1 MOL    -0.0372
      6 C5          9.0030    1.6376  -11.9528 C.ar      1 MOL     0.0200
      7 C6          7.0148    1.2290   -9.9746 C.3       1 MOL     0.0764
      8 C4          8.3514   -0.3064  -13.1366 C.ar      1 MOL     0.0379
      9 C10         9.2142    3.4857   -8.2019 C.2       1 MOL     0.0030
     10 C11        10.3395    3.2882   -9.0012 C.2       1 MOL    -0.0365
     11 C12        10.2469    2.5462  -10.1928 C.3       1 MOL    -0.0105
     12 C13         8.8281    2.4156  -10.7981 C.3       1 MOL     0.0574
     13 C14         6.3462    0.4629   -8.8323 C.3       1 MOL     0.0431
     14 C15         6.0629    2.3105  -10.5005 C.3       1 MOL     0.0431
     15 C16        11.5619    3.8306   -8.6173 C.3       1 MOL     0.0167
     16 C17         9.2588   -0.8730  -15.3035 C.3       1 MOL    -0.0102
     17 C18         8.5932   -0.2642  -16.5418 C.3       1 MOL     0.0110
     18 C19         8.5436   -2.1828  -14.9754 C.3       1 MOL     0.0159
     19 C20        10.7211   -1.1822  -15.6149 C.3       1 MOL     0.0159
     20 C21         7.0678   -0.3219  -16.4323 C.3       1 MOL     0.0009
     21 C22         6.5392   -1.4361  -17.3387 C.3       1 MOL     0.0002
     22 C23         6.9293   -1.1397  -18.7914 C.3       1 MOL     0.0009
     23 C24         8.2951   -1.7616  -19.0887 C.3       1 MOL     0.0115
     24 C25         8.4917   -3.0622  -18.2987 C.3       1 MOL     0.0805
     25 C7          8.0595    0.6133  -12.1534 C.ar      1 MOL     0.0824
     26 C8          8.2946    1.7397   -9.5504 C.3       1 MOL     0.0553
     27 C9          8.0279    2.9178   -8.6477 C.3       1 MOL    -0.0191
     28 BR1        10.3709   -3.4624  -18.0054 Br        1 MOL    -0.0928
     29 H1         10.1820    3.8160  -13.0747 H         1 MOL     0.2183
@<TRIPOS>BOND
     1   24   23 1 
     2   24   28 1 
     3   18   16 1 
     4   23   22 1 
     5   22   21 1 
     6   21   20 1 
     7   20   17 1 
     8   17   16 1 
     9   16   19 1 
    10   16    5 1 
    11    4    5 ar
    12    4    1 ar
    13    5    8 ar
    14    2    1 1 
    15    1    6 ar
    16    8   25 ar
    17    6   25 ar
    18    6   12 1 
    19   11   10 1 
    20   11   12 1 
    21   15   10 1 
    22   25    3 1 
    23   10    9 2 
    24   12   26 1 
    25    3    7 1 
    26   26    7 1 
    27   26   27 1 
    28    9   27 1 
    29    7   14 1 
    30    7   13 1 
    31   29    2 1 
@<TRIPOS>SUBSTRUCTURE
1 MOL         1
@<TRIPOS>MOLECULE
query molecule
   29    31     1     0     0
SMALL
NO_CHARGE

@<TRIPOS>ATOM
      1 C1          5.6191   -1.3625  -10.2839 C.ar      1 MOL     0.0780
      2 O1          5.0975   -1.7265  -11.4925 O.3       1 MOL    -0.3605
      3 O2          7.7315    1.2115   -8.8929 O.3       1 MOL    -0.3392
      4 C2          5.3100   -2.1238   -9.1660 C.ar      1 MOL     0.0376
      5 C3          5.8284   -1.7673   -7.9325 C.ar      1 MOL    -0.0372
      6 C5          6.4478   -0.2261  -10.1814 C.ar      1 MOL     0.0200
      7 C6          7.8993    2.1986   -9.9655 C.3       1 MOL     0.0764
      8 C4          6.6760   -0.6727   -7.8676 C.ar      1 MOL     0.0379
      9 C10         8.1612    1.6213  -13.5251 C.2       1 MOL     0.0030
     10 C11         7.8538    0.2616  -13.4992 C.2       1 MOL    -0.0365
     11 C12         7.4033   -0.3457  -12.3128 C.3       1 MOL    -0.0105
     12 C13         6.8059    0.6090  -11.2507 C.3       1 MOL     0.0574
     13 C14         9.1470    3.0355   -9.6796 C.3       1 MOL     0.0431
     14 C15         6.6689    3.1111  -10.0396 C.3       1 MOL     0.0431
     15 C16         7.9924   -0.4990  -14.6561 C.3       1 MOL     0.0167
     16 C17         5.5295   -2.4996   -6.7779 C.3       1 MOL    -0.0102
     17 C18         4.1732   -2.1194   -6.1753 C.3       1 MOL     0.0110
     18 C19         6.6058   -2.2444   -5.7240 C.3       1 MOL     0.0159
     19 C20         5.5308   -3.9866   -7.1242 C.3       1 MOL     0.0159
     20 C21         3.2896   -3.3542   -5.9835 C.3       1 MOL     0.0009
     21 C22         2.3931   -3.5280   -7.2117 C.3       1 MOL     0.0002
     22 C23         0.9420   -3.7286   -6.7594 C.3       1 MOL     0.0009
     23 C24         0.3356   -2.3762   -6.3799 C.3       1 MOL     0.0115
     24 C25        -1.1179   -2.5355   -5.9150 C.3       1 MOL     0.0805
     25 C7          6.7961    0.2336   -8.8981 C.ar      1 MOL     0.0824
     26 C8          8.0976    1.3958  -11.1465 C.3       1 MOL     0.0553
     27 C9          7.9973    2.3182  -12.3352 C.3       1 MOL    -0.0191
     28 BR1        -2.1576   -3.6389   -7.1310 Br        1 MOL    -0.0928
     29 H1          4.2106   -1.3698  -11.5786 H         1 MOL     0.2183
@<TRIPOS>BOND
     1   24   23 1 
     2   24   28 1 
     3   18   16 1 
     4   23   22 1 
     5   22   21 1 
     6   21   20 1 
     7   20   17 1 
     8   17   16 1 
     9   16   19 1 
    10   16    5 1 
    11    4    5 ar
    12    4    1 ar
    13    5    8 ar
    14    2    1 1 
    15    1    6 ar
    16    8   25 ar
    17    6   25 ar
    18    6   12 1 
    19   11   10 1 
    20   11   12 1 
    21   15   10 1 
    22   25    3 1 
    23   10    9 2 
    24   12   26 1 
    25    3    7 1 
    26   26    7 1 
    27   26   27 1 
    28    9   27 1 
    29    7   14 1 
    30    7   13 1 
    31   29    2 1 
@<TRIPOS>SUBSTRUCTURE
1 MOL         1
@<TRIPOS>MOLECULE
query molecule
   29    31     1     0     0
SMALL
NO_CHARGE

@<TRIPOS>ATOM
      1 C1         10.1092    0.0439  -12.9751 C.ar      1 MOL     0.0780
      2 O1         11.0056   -0.9750  -13.1282 O.3       1 MOL    -0.3605
      3 O2          6.9306    1.1001  -14.3182 O.3       1 MOL    -0.3392
      4 C2         10.3765    1.0346  -12.0414 C.ar      1 MOL     0.0376
      5 C3          9.4770    2.0736  -11.8717 C.ar      1 MOL    -0.0372
      6 C5          8.9307    0.0751  -13.7489 C.ar      1 MOL     0.0200
      7 C6          6.4602   -0.0249  -15.1345 C.3       1 MOL     0.0764
      8 C4          8.3491    2.1041  -12.6765 C.ar      1 MOL     0.0379
      9 C10         8.4112   -2.2986  -17.1584 C.2       1 MOL     0.0030
     10 C11         9.6674   -1.8699  -16.7317 C.2       1 MOL    -0.0365
     11 C12         9.7869   -0.9661  -15.6603 C.3       1 MOL    -0.0105
     12 C13         8.5701   -0.8849  -14.7068 C.3       1 MOL     0.0574
     13 C14         5.4193    0.4860  -16.1317 C.3       1 MOL     0.0431
     14 C15         5.8351   -1.1013  -14.2385 C.3       1 MOL     0.0431
     15 C16        10.8105   -2.3412  -17.3698 C.3       1 MOL     0.0167
     16 C17         9.7017    3.0849  -10.9307 C.3       1 MOL    -0.0102
     17 C18         9.3747    2.6411   -9.5012 C.3       1 MOL     0.0110
     18 C19         8.8261    4.2913  -11.2654 C.3       1 MOL     0.0159
     19 C20        11.1660    3.5107  -11.0062 C.3       1 MOL     0.0159
     20 C21         7.9572    3.0599   -9.1046 C.3       1 MOL     0.0009
     21 C22         6.9486    2.3337   -9.9979 C.3       1 MOL     0.0002
     22 C23         6.7164    0.9178   -9.4579 C.3       1 MOL     0.0009
     23 C24         5.7966    0.1536  -10.4122 C.3       1 MOL     0.0115
     24 C25         5.5460   -1.2744   -9.9101 C.3       1 MOL     0.0805
     25 C7          7.9406    1.0195  -13.4213 C.ar      1 MOL     0.0824
     26 C8          7.6433   -0.4655  -15.8308 C.3       1 MOL     0.0553
     27 C9          7.3153   -1.7892  -16.4744 C.3       1 MOL    -0.0191
     28 BR1         4.0399   -1.3648   -8.6850 Br        1 MOL    -0.0928
     29 H1         10.5339   -1.7927  -13.3016 H         1 MOL     0.2183
@<TRIPOS>BOND
     1   24   23 1 
     2   24   28 1 
     3   18   16 1 
     4   23   22 1 
     5   22   21 1 
     6   21   20 1 
     7   20   17 1 
     8   17   16 1 
     9   16   19 1 
    10   16    5 1 
    11    4    5 ar
    12    4    1 ar
    13    5    8 ar
    14    2    1 1 
    15    1    6 ar
    16    8   25 ar
    17    6   25 ar
    18    6   12 1 
    19   11   10 1 
    20   11   12 1 
    21   15   10 1 
    22   25    3 1 
    23   10    9 2 
    24   12   26 1 
    25    3    7 1 
    26   26    7 1 
    27   26   27 1 
    28    9   27 1 
    29    7   14 1 
    30    7   13 1 
    31   29    2 1 
@<TRIPOS>SUBSTRUCTURE
1 MOL         1
@<TRIPOS>MOLECULE
query molecule
   29    31     1     0     0
SMALL
NO_CHARGE

@<TRIPOS>ATOM
      1 C1          5.9846    0.4977  -10.5382 C.ar      1 MOL     0.0780
      2 O1          5.3722    0.0683  -11.6809 O.3       1 MOL    -0.3605
      3 O2          6.6694   -0.6950   -7.2019 O.3       1 MOL    -0.3392
      4 C2          6.5747    1.7532  -10.5274 C.ar      1 MOL     0.0376
      5 C3          7.2020    2.2030   -9.3778 C.ar      1 MOL    -0.0372
      6 C5          6.0207   -0.3309   -9.3976 C.ar      1 MOL     0.0200
      7 C6          6.2948   -2.1137   -7.2115 C.3       1 MOL     0.0764
      8 C4          7.1839    1.3873   -8.2574 C.ar      1 MOL     0.0379
      9 C10         3.5752   -3.7041   -8.9855 C.2       1 MOL     0.0030
     10 C11         3.1987   -2.5975   -9.7455 C.2       1 MOL    -0.0365
     11 C12         3.9883   -1.4332   -9.7504 C.3       1 MOL    -0.0105
     12 C13         5.4632   -1.6162   -9.3175 C.3       1 MOL     0.0574
     13 C14         6.0575   -2.5746   -5.7726 C.3       1 MOL     0.0431
     14 C15         7.4130   -2.9501   -7.8459 C.3       1 MOL     0.0431
     15 C16         2.0341   -2.6467  -10.5054 C.3       1 MOL     0.0167
     16 C17         7.8220    3.4568   -9.3297 C.3       1 MOL    -0.0102
     17 C18         8.8460    3.6499  -10.4527 C.3       1 MOL     0.0110
     18 C19         8.5472    3.6118   -7.9939 C.3       1 MOL     0.0159
     19 C20         6.7504    4.5398   -9.4299 C.3       1 MOL     0.0159
     20 C21         9.8266    2.4764  -10.5123 C.3       1 MOL     0.0009
     21 C22        10.6448    2.4372   -9.2194 C.3       1 MOL     0.0002
     22 C23        11.9210    3.2677   -9.3984 C.3       1 MOL     0.0009
     23 C24        11.5612    4.7545   -9.4254 C.3       1 MOL     0.0115
     24 C25        12.5254    5.5382  -10.3255 C.3       1 MOL     0.0805
     25 C7          6.8317    0.0568   -8.3152 C.ar      1 MOL     0.0824
     26 C8          5.0589   -2.1401   -7.9535 C.3       1 MOL     0.0553
     27 C9          4.7496   -3.5850   -8.2540 C.3       1 MOL    -0.0191
     28 BR1        11.6288    6.9719  -11.2837 Br        1 MOL    -0.0928
     29 H1          6.0002   -0.4230  -12.2151 H         1 MOL     0.2183
@<TRIPOS>BOND
     1   24   23 1 
     2   24   28 1 
     3   18   16 1 
     4   23   22 1 
     5   22   21 1 
     6   21   20 1 
     7   20   17 1 
     8   17   16 1 
     9   16   19 1 
    10   16    5 1 
    11    4    5 ar
    12    4    1 ar
    13    5    8 ar
    14    2    1 1 
    15    1    6 ar
    16    8   25 ar
    17    6   25 ar
    18    6   12 1 
    19   11   10 1 
    20   11   12 1 
    21   15   10 1 
    22   25    3 1 
    23   10    9 2 
    24   12   26 1 
    25    3    7 1 
    26   26    7 1 
    27   26   27 1 
    28    9   27 1 
    29    7   14 1 
    30    7   13 1 
    31   29    2 1 
@<TRIPOS>SUBSTRUCTURE
1 MOL         1
@<TRIPOS>MOLECULE
query molecule
   29    31     1     0     0
SMALL
NO_CHARGE

@<TRIPOS>ATOM
      1 C1          8.5758    2.6547  -13.1017 C.ar      1 MOL     0.0780
      2 O1          9.0853    3.7671  -13.7084 O.3       1 MOL    -0.3605
      3 O2          8.1843    1.3023   -9.7790 O.3       1 MOL    -0.3392
      4 C2          7.9905    1.6733  -13.8884 C.ar      1 MOL     0.0376
      5 C3          7.4668    0.5401  -13.2892 C.ar      1 MOL    -0.0372
      6 C5          8.6387    2.5189  -11.6995 C.ar      1 MOL     0.0200
      7 C6          8.5549    2.3923   -8.8693 C.3       1 MOL     0.0764
      8 C4          7.5820    0.4112  -11.9141 C.ar      1 MOL     0.0379
      9 C10        11.1066    4.9151   -9.3127 C.2       1 MOL     0.0030
     10 C11        11.4166    4.6114  -10.6377 C.2       1 MOL    -0.0365
     11 C12        10.6310    3.6968  -11.3627 C.3       1 MOL    -0.0105
     12 C13         9.1995    3.4606  -10.8231 C.3       1 MOL     0.0574
     13 C14         8.9167    1.8004   -7.5063 C.3       1 MOL     0.0431
     14 C15         7.3844    3.3713   -8.7151 C.3       1 MOL     0.0431
     15 C16        12.5100    5.2191  -11.2470 C.3       1 MOL     0.0167
     16 C17         6.8550   -0.4665  -14.0450 C.3       1 MOL    -0.0102
     17 C18         7.7941   -1.6441  -14.3254 C.3       1 MOL     0.0110
     18 C19         6.4038    0.1108  -15.3857 C.3       1 MOL     0.0159
     19 C20         5.6248   -0.9680  -13.2926 C.3       1 MOL     0.0159
     20 C21         9.2593   -1.2290  -14.1737 C.3       1 MOL     0.0009
     21 C22         9.5566   -0.0710  -15.1293 C.3       1 MOL     0.0002
     22 C23        10.7427   -0.4423  -16.0268 C.3       1 MOL     0.0009
     23 C24        10.3350   -1.5808  -16.9640 C.3       1 MOL     0.0115
     24 C25         9.1894   -1.1491  -17.8889 C.3       1 MOL     0.0805
     25 C7          7.9261    1.4658  -11.0972 C.ar      1 MOL     0.0824
     26 C8          9.7210    2.9753   -9.4849 C.3       1 MOL     0.0553
     27 C9         10.0010    4.2733   -8.7704 C.3       1 MOL    -0.0191
     28 BR1         7.7954   -2.4985  -18.0048 Br        1 MOL    -0.0928
     29 H1         10.0209    3.8409  -13.5074 H         1 MOL     0.2183
@<TRIPOS>BOND
     1   24   23 1 
     2   24   28 1 
     3   18   16 1 
     4   23   22 1 
     5   22   21 1 
     6   21   20 1 
     7   20   17 1 
     8   17   16 1 
     9   16   19 1 
    10   16    5 1 
    11    4    5 ar
    12    4    1 ar
    13    5    8 ar
    14    2    1 1 
    15    1    6 ar
    16    8   25 ar
    17    6   25 ar
    18    6   12 1 
    19   11   10 1 
    20   11   12 1 
    21   15   10 1 
    22   25    3 1 
    23   10    9 2 
    24   12   26 1 
    25    3    7 1 
    26   26    7 1 
    27   26   27 1 
    28    9   27 1 
    29    7   14 1 
    30    7   13 1 
    31   29    2 1 
@<TRIPOS>SUBSTRUCTURE
1 MOL         1
@<TRIPOS>MOLECULE
query molecule
   29    31     1     0     0
SMALL
NO_CHARGE

@<TRIPOS>ATOM
      1 C1          7.1988   -0.2354  -10.4366 C.ar      1 MOL     0.0780
      2 O1          8.0289    0.2097   -9.4477 O.3       1 MOL    -0.3605
      3 O2          4.0808   -2.0200  -10.7774 O.3       1 MOL    -0.3392
      4 C2          7.5350    0.0221  -11.7577 C.ar      1 MOL     0.0376
      5 C3          6.7031   -0.4200  -12.7726 C.ar      1 MOL    -0.0372
      6 C5          6.0181   -0.9345  -10.1114 C.ar      1 MOL     0.0200
      7 C6          3.5347   -2.1117   -9.4186 C.3       1 MOL     0.0764
      8 C4          5.5726   -1.1435  -12.4272 C.ar      1 MOL     0.0379
      9 C10         5.3237   -2.5347   -6.3052 C.2       1 MOL     0.0030
     10 C11         6.6076   -2.3739   -6.8245 C.2       1 MOL    -0.0365
     11 C12         6.7920   -1.9575   -8.1556 C.3       1 MOL    -0.0105
     12 C13         5.5906   -1.2315   -8.8082 C.3       1 MOL     0.0574
     13 C14         2.5191   -3.2541   -9.3674 C.3       1 MOL     0.0431
     14 C15         2.8515   -0.7932   -9.0349 C.3       1 MOL     0.0431
     15 C16         7.7139   -2.6258   -6.0190 C.3       1 MOL     0.0167
     16 C17         6.9981   -0.1685  -14.1174 C.3       1 MOL    -0.0102
     17 C18         7.7915   -1.3062  -14.7680 C.3       1 MOL     0.0110
     18 C19         7.8280    1.1100  -14.2229 C.3       1 MOL     0.0159
     19 C20         5.6903    0.0364  -14.8781 C.3       1 MOL     0.0159
     20 C21         8.9393   -1.7644  -13.8654 C.3       1 MOL     0.0009
     21 C22         9.8203   -0.5613  -13.5205 C.3       1 MOL     0.0002
     22 C23        10.8937   -0.3890  -14.6015 C.3       1 MOL     0.0009
     23 C24        10.2206   -0.2252  -15.9656 C.3       1 MOL     0.0115
     24 C25        10.4189   -1.4764  -16.8312 C.3       1 MOL     0.0805
     25 C7          5.0913   -1.1951  -11.1374 C.ar      1 MOL     0.0824
     26 C8          4.6822   -2.4281   -8.6052 C.3       1 MOL     0.0553
     27 C9          4.2673   -2.2634   -7.1648 C.3       1 MOL    -0.0191
     28 BR1         8.9383   -1.7585  -18.0584 Br        1 MOL    -0.0928
     29 H1          8.9416    0.0634   -9.7063 H         1 MOL     0.2183
@<TRIPOS>BOND
     1   24   23 1 
     2   24   28 1 
     3   18   16 1 
     4   23   22 1 
     5   22   21 1 
     6   21   20 1 
     7   20   17 1 
     8   17   16 1 
     9   16   19 1 
    10   16    5 1 
    11    4    5 ar
    12    4    1 ar
    13    5    8 ar
    14    2    1 1 
    15    1    6 ar
    16    8   25 ar
    17    6   25 ar
    18    6   12 1 
    19   11   10 1 
    20   11   12 1 
    21   15   10 1 
    22   25    3 1 
    23   10    9 2 
    24   12   26 1 
    25    3    7 1 
    26   26    7 1 
    27   26   27 1 
    28    9   27 1 
    29    7   14 1 
    30    7   13 1 
    31   29    2 1 
@<TRIPOS>SUBSTRUCTURE
1 MOL         1
@<TRIPOS>MOLECULE
query molecule
   29    31     1     0     0
SMALL
NO_CHARGE

@<TRIPOS>ATOM
      1 C1          7.5205    0.2841  -12.4877 C.ar      1 MOL     0.0780
      2 O1          6.3025    0.1235  -11.8913 O.3       1 MOL    -0.3605
      3 O2         10.6114    2.0622  -11.9334 O.3       1 MOL    -0.3392
      4 C2          7.7829   -0.3992  -13.6662 C.ar      1 MOL     0.0376
      5 C3          9.0137   -0.2496  -14.2828 C.ar      1 MOL    -0.0372
      6 C5          8.4919    1.1234  -11.9040 C.ar      1 MOL     0.0200
      7 C6         10.5051    2.6138  -10.5778 C.3       1 MOL     0.0764
      8 C4          9.9335    0.6159  -13.7121 C.ar      1 MOL     0.0379
      9 C10         7.5677    3.8870   -8.8977 C.2       1 MOL     0.0030
     10 C11         6.6378    3.4892   -9.8575 C.2       1 MOL    -0.0365
     11 C12         7.0259    2.6619  -10.9272 C.3       1 MOL    -0.0105
     12 C13         8.3225    1.8441  -10.7119 C.3       1 MOL     0.0574
     13 C14        11.4897    3.7753  -10.4355 C.3       1 MOL     0.0431
     14 C15        10.8279    1.5306   -9.5410 C.3       1 MOL     0.0431
     15 C16         5.3164    3.9128   -9.7549 C.3       1 MOL     0.0167
     16 C17         9.3237   -0.9321  -15.4647 C.3       1 MOL    -0.0102
     17 C18         8.7193   -0.2654  -16.7045 C.3       1 MOL     0.0110
     18 C19         8.7835   -2.3589  -15.3817 C.3       1 MOL     0.0159
     19 C20        10.8420   -0.9948  -15.6129 C.3       1 MOL     0.0159
     20 C21         7.1900   -0.2806  -16.6483 C.3       1 MOL     0.0009
     21 C22         6.6662   -1.4467  -17.4897 C.3       1 MOL     0.0002
     22 C23         7.0430   -1.2248  -18.9591 C.3       1 MOL     0.0009
     23 C24         8.3644   -1.9353  -19.2587 C.3       1 MOL     0.0115
     24 C25         8.5453   -3.1642  -18.3580 C.3       1 MOL     0.0805
     25 C7          9.7962    1.1037  -12.4311 C.ar      1 MOL     0.0824
     26 C8          9.1491    3.0983  -10.5070 C.3       1 MOL     0.0553
     27 C9          8.8668    3.4248   -9.0621 C.3       1 MOL    -0.0191
     28 BR1        10.4189   -3.5437  -18.0069 Br        1 MOL    -0.0928
     29 H1          5.9891   -0.7714  -12.0399 H         1 MOL     0.2183
@<TRIPOS>BOND
     1   24   23 1 
     2   24   28 1 
     3   18   16 1 
     4   23   22 1 
     5   22   21 1 
     6   21   20 1 
     7   20   17 1 
     8   17   16 1 
     9   16   19 1 
    10   16    5 1 
    11    4    5 ar
    12    4    1 ar
    13    5    8 ar
    14    2    1 1 
    15    1    6 ar
    16    8   25 ar
    17    6   25 ar
    18    6   12 1 
    19   11   10 1 
    20   11   12 1 
    21   15   10 1 
    22   25    3 1 
    23   10    9 2 
    24   12   26 1 
    25    3    7 1 
    26   26    7 1 
    27   26   27 1 
    28    9   27 1 
    29    7   14 1 
    30    7   13 1 
    31   29    2 1 
@<TRIPOS>SUBSTRUCTURE
1 MOL         1
@<TRIPOS>MOLECULE
query molecule
   29    31     1     0     0
SMALL
NO_CHARGE

@<TRIPOS>ATOM
      1 C1          4.8428   -0.5824   -9.7927 C.ar      1 MOL     0.0780
      2 O1          3.5499   -0.6856  -10.2202 O.3       1 MOL    -0.3605
      3 O2          7.0480   -2.1249   -7.3884 O.3       1 MOL    -0.3392
      4 C2          5.6721    0.3544  -10.3921 C.ar      1 MOL     0.0376
      5 C3          6.9866    0.4706   -9.9724 C.ar      1 MOL    -0.0372
      6 C5          5.3209   -1.4238   -8.7670 C.ar      1 MOL     0.0200
      7 C6          6.3179   -3.2940   -6.8851 C.3       1 MOL     0.0764
      8 C4          7.4179   -0.3374   -8.9321 C.ar      1 MOL     0.0379
      9 C10         2.7672   -3.6397   -6.2976 C.2       1 MOL     0.0030
     10 C11         2.3809   -2.4333   -6.8801 C.2       1 MOL    -0.0365
     11 C12         3.3109   -1.6553   -7.5936 C.3       1 MOL    -0.0105
     12 C13         4.5624   -2.4054   -8.1109 C.3       1 MOL     0.0574
     13 C14         6.9119   -3.7085   -5.5382 C.3       1 MOL     0.0431
     14 C15         6.4311   -4.4551   -7.8808 C.3       1 MOL     0.0431
     15 C16         1.0654   -1.9973   -6.7557 C.3       1 MOL     0.0167
     16 C17         7.8600    1.3925  -10.5606 C.3       1 MOL    -0.0102
     17 C18         8.7035    0.7723  -11.6791 C.3       1 MOL     0.0110
     18 C19         8.8104    1.9393   -9.4965 C.3       1 MOL     0.0159
     19 C20         7.0436    2.5523  -11.1257 C.3       1 MOL     0.0159
     20 C21         9.9524    1.6118  -11.9578 C.3       1 MOL     0.0009
     21 C22         9.6167    3.0929  -11.7683 C.3       1 MOL     0.0002
     22 C23        10.7961    3.8004  -11.0909 C.3       1 MOL     0.0009
     23 C24        10.7752    5.2863  -11.4544 C.3       1 MOL     0.0115
     24 C25        12.0884    5.9703  -11.0519 C.3       1 MOL     0.0805
     25 C7          6.7018   -1.4309   -8.4972 C.ar      1 MOL     0.0824
     26 C8          4.9711   -2.8110   -6.7085 C.3       1 MOL     0.0553
     27 C9          4.0943   -4.0133   -6.4640 C.3       1 MOL    -0.0191
     28 BR1        12.6709    7.2698  -12.3746 Br        1 MOL    -0.0928
     29 H1          3.5229   -1.1842  -11.0398 H         1 MOL     0.2183
@<TRIPOS>BOND
     1   24   23 1 
     2   24   28 1 
     3   18   16 1 
     4   23   22 1 
     5   22   21 1 
     6   21   20 1 
     7   20   17 1 
     8   17   16 1 
     9   16   19 1 
    10   16    5 1 
    11    4    5 ar
    12    4    1 ar
    13    5    8 ar
    14    2    1 1 
    15    1    6 ar
    16    8   25 ar
    17    6   25 ar
    18    6   12 1 
    19   11   10 1 
    20   11   12 1 
    21   15   10 1 
    22   25    3 1 
    23   10    9 2 
    24   12   26 1 
    25    3    7 1 
    26   26    7 1 
    27   26   27 1 
    28    9   27 1 
    29    7   14 1 
    30    7   13 1 
    31   29    2 1 
@<TRIPOS>SUBSTRUCTURE
1 MOL         1
@<TRIPOS>MOLECULE
query molecule
   29    31     1     0     0
SMALL
NO_CHARGE

@<TRIPOS>ATOM
      1 C1          4.6767   -2.5415  -10.4962 C.ar      1 MOL     0.0780
      2 O1          3.6732   -3.4674  -10.4681 O.3       1 MOL    -0.3605
      3 O2          7.0072   -0.9809   -8.2256 O.3       1 MOL    -0.3392
      4 C2          5.0100   -1.9539  -11.7080 C.ar      1 MOL     0.0376
      5 C3          6.0266   -1.0149  -11.7547 C.ar      1 MOL    -0.0372
      6 C5          5.3631   -2.2021   -9.3121 C.ar      1 MOL     0.0200
      7 C6          6.8864   -1.7292   -6.9692 C.3       1 MOL     0.0764
      8 C4          6.6545   -0.6668  -10.5691 C.ar      1 MOL     0.0379
      9 C10         3.9232   -3.1990   -5.5092 C.2       1 MOL     0.0030
     10 C11         3.0762   -2.9880   -6.5964 C.2       1 MOL    -0.0365
     11 C12         3.5898   -2.5258   -7.8218 C.3       1 MOL    -0.0105
     12 C13         5.1050   -2.7497   -8.0461 C.3       1 MOL     0.0574
     13 C14         7.4191   -0.8667   -5.8241 C.3       1 MOL     0.0431
     14 C15         7.6895   -3.0332   -7.0529 C.3       1 MOL     0.0431
     15 C16         1.7135   -3.2382   -6.4678 C.3       1 MOL     0.0167
     16 C17         6.4037   -0.4093  -12.9588 C.3       1 MOL    -0.0102
     17 C18         7.4752   -1.2078  -13.7082 C.3       1 MOL     0.0110
     18 C19         6.9633    0.9831  -12.6716 C.3       1 MOL     0.0159
     19 C20         5.1686   -0.2639  -13.8445 C.3       1 MOL     0.0159
     20 C21         8.5754   -1.6827  -12.7562 C.3       1 MOL     0.0009
     21 C22         9.4349   -0.4859  -12.3424 C.3       1 MOL     0.0002
     22 C23        10.6264   -0.3590  -13.2987 C.3       1 MOL     0.0009
     23 C24        10.1338    0.1239  -14.6643 C.3       1 MOL     0.0115
     24 C25        10.8076   -0.6569  -15.8004 C.3       1 MOL     0.0805
     25 C7          6.5178   -1.4046   -9.4139 C.ar      1 MOL     0.0824
     26 C8          5.4665   -1.9313   -6.8221 C.3       1 MOL     0.0553
     27 C9          5.2709   -2.9309   -5.7102 C.3       1 MOL    -0.0191
     28 BR1         9.5219   -1.2980  -17.1094 Br        1 MOL    -0.0928
     29 H1          4.0516   -4.3495  -10.4770 H         1 MOL     0.2183
@<TRIPOS>BOND
     1   24   23 1 
     2   24   28 1 
     3   18   16 1 
     4   23   22 1 
     5   22   21 1 
     6   21   20 1 
     7   20   17 1 
     8   17   16 1 
     9   16   19 1 
    10   16    5 1 
    11    4    5 ar
    12    4    1 ar
    13    5    8 ar
    14    2    1 1 
    15    1    6 ar
    16    8   25 ar
    17    6   25 ar
    18    6   12 1 
    19   11   10 1 
    20   11   12 1 
    21   15   10 1 
    22   25    3 1 
    23   10    9 2 
    24   12   26 1 
    25    3    7 1 
    26   26    7 1 
    27   26   27 1 
    28    9   27 1 
    29    7   14 1 
    30    7   13 1 
    31   29    2 1 
@<TRIPOS>SUBSTRUCTURE
1 MOL         1
@<TRIPOS>MOLECULE
query molecule
   29    31     1     0     0
SMALL
NO_CHARGE

@<TRIPOS>ATOM
      1 C1          9.5054    1.5784  -13.2164 C.ar      1 MOL     0.0780
      2 O1         10.1869    2.7523  -13.0663 O.3       1 MOL    -0.3605
      3 O2          7.0465   -0.3881  -11.4531 O.3       1 MOL    -0.3392
      4 C2          9.7241    0.8198  -14.3572 C.ar      1 MOL     0.0376
      5 C3          9.0396   -0.3719  -14.5263 C.ar      1 MOL    -0.0372
      6 C5          8.5903    1.1574  -12.2295 C.ar      1 MOL     0.0200
      7 C6          6.5790    0.4666  -10.3559 C.3       1 MOL     0.0764
      8 C4          8.1799   -0.7843  -13.5204 C.ar      1 MOL     0.0379
      9 C10         8.4751    2.8427   -8.3986 C.2       1 MOL     0.0030
     10 C11         9.6439    2.7928   -9.1573 C.2       1 MOL    -0.0365
     11 C12         9.6705    2.1010  -10.3820 C.3       1 MOL    -0.0105
     12 C13         8.2956    1.8608  -11.0515 C.3       1 MOL     0.0574
     13 C14         5.9469   -0.4128   -9.2760 C.3       1 MOL     0.0431
     14 C15         5.5451    1.4732  -10.8754 C.3       1 MOL     0.0431
     15 C16        10.7911    3.4335   -8.6998 C.3       1 MOL     0.0167
     16 C17         9.2203   -1.1595  -15.6691 C.3       1 MOL    -0.0102
     17 C18         8.6248   -0.5172  -16.9260 C.3       1 MOL     0.0110
     18 C19         8.5443   -2.5140  -15.4621 C.3       1 MOL     0.0159
     19 C20        10.7153   -1.3888  -15.8773 C.3       1 MOL     0.0159
     20 C21         7.0951   -0.5263  -16.8779 C.3       1 MOL     0.0009
     21 C22         6.5718   -1.6998  -17.7094 C.3       1 MOL     0.0002
     22 C23         7.6357   -2.1143  -18.7325 C.3       1 MOL     0.0009
     23 C24         7.4919   -1.2577  -19.9919 C.3       1 MOL     0.0115
     24 C25         7.1157    0.1865  -19.6356 C.3       1 MOL     0.0805
     25 C7          7.7613    0.0564  -12.5126 C.ar      1 MOL     0.0824
     26 C8          7.7849    1.0794   -9.8569 C.3       1 MOL     0.0553
     27 C9          7.3688    2.1831   -8.9175 C.3       1 MOL    -0.0191
     28 BR1         8.1681    1.4827  -20.6305 Br        1 MOL    -0.0928
     29 H1         10.0497    3.3030  -13.8403 H         1 MOL     0.2183
@<TRIPOS>BOND
     1   24   23 1 
     2   24   28 1 
     3   18   16 1 
     4   23   22 1 
     5   22   21 1 
     6   21   20 1 
     7   20   17 1 
     8   17   16 1 
     9   16   19 1 
    10   16    5 1 
    11    4    5 ar
    12    4    1 ar
    13    5    8 ar
    14    2    1 1 
    15    1    6 ar
    16    8   25 ar
    17    6   25 ar
    18    6   12 1 
    19   11   10 1 
    20   11   12 1 
    21   15   10 1 
    22   25    3 1 
    23   10    9 2 
    24   12   26 1 
    25    3    7 1 
    26   26    7 1 
    27   26   27 1 
    28    9   27 1 
    29    7   14 1 
    30    7   13 1 
    31   29    2 1 
@<TRIPOS>SUBSTRUCTURE
1 MOL         1
@<TRIPOS>MOLECULE
query molecule
   29    31     1     0     0
SMALL
NO_CHARGE

@<TRIPOS>ATOM
      1 C1          7.4212    0.1280   -9.3967 C.ar      1 MOL     0.0780
      2 O1          7.6167    0.7097   -8.1767 O.3       1 MOL    -0.3605
      3 O2          4.9772   -1.9321  -11.0717 O.3       1 MOL    -0.3392
      4 C2          8.3722    0.3195  -10.3885 C.ar      1 MOL     0.0376
      5 C3          8.1884   -0.2613  -11.6320 C.ar      1 MOL    -0.0372
      6 C5          6.2658   -0.6434   -9.6386 C.ar      1 MOL     0.0200
      7 C6          3.8202   -1.9738  -10.1702 C.3       1 MOL     0.0764
      8 C4          7.0667   -1.0513  -11.8289 C.ar      1 MOL     0.0379
      9 C10         3.7935   -2.0251   -6.5551 C.2       1 MOL     0.0030
     10 C11         5.1562   -1.7937   -6.3723 C.2       1 MOL    -0.0365
     11 C12         5.9758   -1.4577   -7.4653 C.3       1 MOL    -0.0105
     12 C13         5.2467   -0.8830   -8.7040 C.3       1 MOL     0.0574
     13 C14         2.9626   -3.1911  -10.5186 C.3       1 MOL     0.0431
     14 C15         2.9886   -0.6938  -10.3201 C.3       1 MOL     0.0431
     15 C16         5.7083   -1.8944   -5.0991 C.3       1 MOL     0.0167
     16 C17         9.1162   -0.0809  -12.6642 C.3       1 MOL    -0.0102
     17 C18         8.6910    1.0092  -13.6531 C.3       1 MOL     0.0110
     18 C19         9.2731   -1.3890  -13.4379 C.3       1 MOL     0.0159
     19 C20        10.4661    0.2879  -12.0536 C.3       1 MOL     0.0159
     20 C21         7.1666    1.0912  -13.7613 C.3       1 MOL     0.0009
     21 C22         6.6370   -0.1938  -14.4022 C.3       1 MOL     0.0002
     22 C23         6.1897    0.0999  -15.8389 C.3       1 MOL     0.0009
     23 C24         6.5313   -1.0940  -16.7324 C.3       1 MOL     0.0115
     24 C25         8.0404   -1.3714  -16.7277 C.3       1 MOL     0.0805
     25 C7          5.9992   -1.0525  -10.9581 C.ar      1 MOL     0.0824
     26 C8          4.4061   -2.1346   -8.8627 C.3       1 MOL     0.0553
     27 C9          3.3112   -1.9047   -7.8517 C.3       1 MOL    -0.0191
     28 BR1         8.6072   -2.3579  -18.3035 Br        1 MOL    -0.0928
     29 H1          7.2518    1.5975   -8.1835 H         1 MOL     0.2183
@<TRIPOS>BOND
     1   24   23 1 
     2   24   28 1 
     3   18   16 1 
     4   23   22 1 
     5   22   21 1 
     6   21   20 1 
     7   20   17 1 
     8   17   16 1 
     9   16   19 1 
    10   16    5 1 
    11    4    5 ar
    12    4    1 ar
    13    5    8 ar
    14    2    1 1 
    15    1    6 ar
    16    8   25 ar
    17    6   25 ar
    18    6   12 1 
    19   11   10 1 
    20   11   12 1 
    21   15   10 1 
    22   25    3 1 
    23   10    9 2 
    24   12   26 1 
    25    3    7 1 
    26   26    7 1 
    27   26   27 1 
    28    9   27 1 
    29    7   14 1 
    30    7   13 1 
    31   29    2 1 
@<TRIPOS>SUBSTRUCTURE
1 MOL         1
@<TRIPOS>MOLECULE
query molecule
   29    31     1     0     0
SMALL
NO_CHARGE

@<TRIPOS>ATOM
      1 C1          7.2191    0.1589  -10.4125 C.ar      1 MOL     0.0780
      2 O1          7.8690    0.6441   -9.3137 O.3       1 MOL    -0.3605
      3 O2          4.3380   -1.8668  -11.1990 O.3       1 MOL    -0.3392
      4 C2          7.7050    0.4788  -11.6719 C.ar      1 MOL     0.0376
      5 C3          7.0566   -0.0029  -12.7966 C.ar      1 MOL    -0.0372
      6 C5          6.0695   -0.6437  -10.2606 C.ar      1 MOL     0.0200
      7 C6          3.6255   -2.0398   -9.9280 C.3       1 MOL     0.0764
      8 C4          5.9560   -0.8261  -12.6183 C.ar      1 MOL     0.0379
      9 C10         5.0132   -2.3977   -6.6086 C.2       1 MOL     0.0030
     10 C11         6.3365   -2.1177   -6.9472 C.2       1 MOL    -0.0365
     11 C12         6.6604   -1.6517   -8.2345 C.3       1 MOL    -0.0105
     12 C13         5.4991   -1.0099   -9.0319 C.3       1 MOL     0.0574
     13 C14         2.7134   -3.2629  -10.0323 C.3       1 MOL     0.0431
     14 C15         2.7873   -0.7930   -9.6195 C.3       1 MOL     0.0431
     15 C16         7.3430   -2.2992   -6.0038 C.3       1 MOL     0.0167
     16 C17         7.5056    0.3083  -14.0851 C.3       1 MOL    -0.0102
     17 C18         8.4334   -0.7668  -14.6600 C.3       1 MOL     0.0110
     18 C19         8.2738    1.6284  -14.0483 C.3       1 MOL     0.0159
     19 C20         6.2955    0.4752  -15.0010 C.3       1 MOL     0.0159
     20 C21         9.3985   -1.2897  -13.5936 C.3       1 MOL     0.0009
     21 C22        10.1859   -0.1156  -13.0072 C.3       1 MOL     0.0002
     22 C23        10.3806   -0.3333  -11.5022 C.3       1 MOL     0.0009
     23 C24        10.5663    1.0194  -10.8120 C.3       1 MOL     0.0115
     24 C25        10.2227    2.1741  -11.7621 C.3       1 MOL     0.0805
     25 C7          5.3133   -0.9520  -11.4063 C.ar      1 MOL     0.0824
     26 C8          4.6772   -2.2824   -8.9722 C.3       1 MOL     0.0553
     27 C9          4.0615   -2.1913   -7.5986 C.3       1 MOL    -0.0191
     28 BR1        10.3925    3.9068  -10.8981 Br        1 MOL    -0.0928
     29 H1          8.1337   -0.0863   -8.7502 H         1 MOL     0.2183
@<TRIPOS>BOND
     1   24   23 1 
     2   24   28 1 
     3   18   16 1 
     4   23   22 1 
     5   22   21 1 
     6   21   20 1 
     7   20   17 1 
     8   17   16 1 
     9   16   19 1 
    10   16    5 1 
    11    4    5 ar
    12    4    1 ar
    13    5    8 ar
    14    2    1 1 
    15    1    6 ar
    16    8   25 ar
    17    6   25 ar
    18    6   12 1 
    19   11   10 1 
    20   11   12 1 
    21   15   10 1 
    22   25    3 1 
    23   10    9 2 
    24   12   26 1 
    25    3    7 1 
    26   26    7 1 
    27   26   27 1 
    28    9   27 1 
    29    7   14 1 
    30    7   13 1 
    31   29    2 1 
@<TRIPOS>SUBSTRUCTURE
1 MOL         1
@<TRIPOS>MOLECULE
query molecule
   29    31     1     0     0
SMALL
NO_CHARGE

@<TRIPOS>ATOM
      1 C1          4.8207   -2.3530  -10.5462 C.ar      1 MOL     0.0780
      2 O1          3.8006   -3.2572  -10.6303 O.3       1 MOL    -0.3605
      3 O2          7.0440   -0.9786   -8.0581 O.3       1 MOL    -0.3392
      4 C2          5.2342   -1.7028  -11.6999 C.ar      1 MOL     0.0376
      5 C3          6.2688   -0.7849  -11.6329 C.ar      1 MOL    -0.0372
      6 C5          5.4436   -2.0984   -9.3069 C.ar      1 MOL     0.0200
      7 C6          6.8372   -1.7964   -6.8575 C.3       1 MOL     0.0764
      8 C4          6.8332   -0.5204  -10.3950 C.ar      1 MOL     0.0379
      9 C10         3.7683   -3.2848   -5.6580 C.2       1 MOL     0.0030
     10 C11         2.9895   -2.9923   -6.7769 C.2       1 MOL    -0.0365
     11 C12         3.5814   -2.4704   -7.9415 C.3       1 MOL    -0.0105
     12 C13         5.1028   -2.7134   -8.0925 C.3       1 MOL     0.0574
     13 C14         7.3183   -1.0140   -5.6346 C.3       1 MOL     0.0431
     14 C15         7.6199   -3.1102   -6.9732 C.3       1 MOL     0.0431
     15 C16         1.6173   -3.2202   -6.7409 C.3       1 MOL     0.0167
     16 C17         6.7258   -0.1182  -12.7754 C.3       1 MOL    -0.0102
     17 C18         7.8200   -0.8971  -13.5124 C.3       1 MOL     0.0110
     18 C19         7.2984    1.2402  -12.3736 C.3       1 MOL     0.0159
     19 C20         5.5457    0.1107  -13.7167 C.3       1 MOL     0.0159
     20 C21         8.9021   -1.3783  -12.5431 C.3       1 MOL     0.0009
     21 C22         9.7530   -0.1842  -12.1044 C.3       1 MOL     0.0002
     22 C23         9.8027   -0.1287  -10.5731 C.3       1 MOL     0.0009
     23 C24         9.5491    1.3063  -10.1072 C.3       1 MOL     0.0115
     24 C25        10.7759    1.8747   -9.3820 C.3       1 MOL     0.0805
     25 C7          6.6165   -1.3214   -9.2954 C.ar      1 MOL     0.0824
     26 C8          5.4077   -1.9760   -6.8034 C.3       1 MOL     0.0553
     27 C9          5.1299   -3.0346   -5.7660 C.3       1 MOL    -0.0191
     28 BR1        10.7981    3.8181   -9.3964 Br        1 MOL    -0.0928
     29 H1          4.1633   -4.1436  -10.6934 H         1 MOL     0.2183
@<TRIPOS>BOND
     1   24   23 1 
     2   24   28 1 
     3   18   16 1 
     4   23   22 1 
     5   22   21 1 
     6   21   20 1 
     7   20   17 1 
     8   17   16 1 
     9   16   19 1 
    10   16    5 1 
    11    4    5 ar
    12    4    1 ar
    13    5    8 ar
    14    2    1 1 
    15    1    6 ar
    16    8   25 ar
    17    6   25 ar
    18    6   12 1 
    19   11   10 1 
    20   11   12 1 
    21   15   10 1 
    22   25    3 1 
    23   10    9 2 
    24   12   26 1 
    25    3    7 1 
    26   26    7 1 
    27   26   27 1 
    28    9   27 1 
    29    7   14 1 
    30    7   13 1 
    31   29    2 1 
@<TRIPOS>SUBSTRUCTURE
1 MOL         1
@<TRIPOS>MOLECULE
query molecule
   29    31     1     0     0
SMALL
NO_CHARGE

@<TRIPOS>ATOM
      1 C1         10.1289    2.0364  -12.9196 C.ar      1 MOL     0.0780
      2 O1         10.9626    3.1110  -13.0428 O.3       1 MOL    -0.3605
      3 O2          7.7656    0.6799  -10.5538 O.3       1 MOL    -0.3392
      4 C2         10.0680    1.1155  -13.9554 C.ar      1 MOL     0.0376
      5 C3          9.2261    0.0214  -13.8478 C.ar      1 MOL    -0.0372
      6 C5          9.3401    1.8788  -11.7613 C.ar      1 MOL     0.0200
      7 C6          7.5874    1.7250   -9.5393 C.3       1 MOL     0.0764
      8 C4          8.4958   -0.1332  -12.6800 C.ar      1 MOL     0.0379
      9 C10        10.0468    4.0370   -8.2439 C.2       1 MOL     0.0030
     10 C11        11.0636    3.7253   -9.1455 C.2       1 MOL    -0.0365
     11 C12        10.8092    2.8866  -10.2459 C.3       1 MOL    -0.0105
     12 C13         9.3258    2.7610  -10.6701 C.3       1 MOL     0.0574
     13 C14         7.0353    1.0890   -8.2627 C.3       1 MOL     0.0431
     14 C15         6.6129    2.7939  -10.0491 C.3       1 MOL     0.0431
     15 C16        12.3385    4.2495   -8.9555 C.3       1 MOL     0.0167
     16 C17         9.1242   -0.9228  -14.8758 C.3       1 MOL    -0.0102
     17 C18         8.1622   -0.4836  -15.9843 C.3       1 MOL     0.0110
     18 C19         8.6151   -2.2437  -14.3010 C.3       1 MOL     0.0159
     19 C20        10.5111   -1.1538  -15.4710 C.3       1 MOL     0.0159
     20 C21         6.8800    0.1113  -15.3976 C.3       1 MOL     0.0009
     21 C22         5.7676   -0.9386  -15.4495 C.3       1 MOL     0.0002
     22 C23         4.7939   -0.7076  -14.2881 C.3       1 MOL     0.0009
     23 C24         5.5821   -0.3489  -13.0268 C.3       1 MOL     0.0115
     24 C25         5.5599   -1.5035  -12.0166 C.3       1 MOL     0.0805
     25 C7          8.3493    0.8799  -11.7580 C.ar      1 MOL     0.0824
     26 C8          8.9229    2.2186   -9.3129 C.3       1 MOL     0.0553
     27 C9          8.7998    3.4808   -8.4971 C.3       1 MOL    -0.0191
     28 BR1         4.8016   -0.9667  -10.3095 Br        1 MOL    -0.0928
     29 H1         11.8554    2.8524  -12.8034 H         1 MOL     0.2183
@<TRIPOS>BOND
     1   24   23 1 
     2   24   28 1 
     3   18   16 1 
     4   23   22 1 
     5   22   21 1 
     6   21   20 1 
     7   20   17 1 
     8   17   16 1 
     9   16   19 1 
    10   16    5 1 
    11    4    5 ar
    12    4    1 ar
    13    5    8 ar
    14    2    1 1 
    15    1    6 ar
    16    8   25 ar
    17    6   25 ar
    18    6   12 1 
    19   11   10 1 
    20   11   12 1 
    21   15   10 1 
    22   25    3 1 
    23   10    9 2 
    24   12   26 1 
    25    3    7 1 
    26   26    7 1 
    27   26   27 1 
    28    9   27 1 
    29    7   14 1 
    30    7   13 1 
    31   29    2 1 
@<TRIPOS>SUBSTRUCTURE
1 MOL         1
@<TRIPOS>MOLECULE
query molecule
   29    31     1     0     0
SMALL
NO_CHARGE

@<TRIPOS>ATOM
      1 C1          9.2875    2.9259  -13.2135 C.ar      1 MOL     0.0780
      2 O1          8.8558    4.1337  -13.6824 O.3       1 MOL    -0.3605
      3 O2         10.8957    1.5571  -10.2872 O.3       1 MOL    -0.3392
      4 C2          9.0998    1.7980  -13.9992 C.ar      1 MOL     0.0376
      5 C3          9.5294    0.5652  -13.5378 C.ar      1 MOL    -0.0372
      6 C5          9.9029    2.8343  -11.9479 C.ar      1 MOL     0.0200
      7 C6         10.9041    2.6455   -9.3031 C.3       1 MOL     0.0764
      8 C4         10.1713    0.5102  -12.3107 C.ar      1 MOL     0.0379
      9 C10        11.3160    6.1905   -9.8821 C.2       1 MOL     0.0030
     10 C11        11.2511    6.1435  -11.2741 C.2       1 MOL    -0.0365
     11 C12        10.8962    4.9517  -11.9319 C.3       1 MOL    -0.0105
     12 C13        10.1251    3.9144  -11.0800 C.3       1 MOL     0.0574
     13 C14        11.9816    2.3601   -8.2560 C.3       1 MOL     0.0431
     14 C15         9.5342    2.7508   -8.6217 C.3       1 MOL     0.0431
     15 C16        11.5379    7.2846  -12.0169 C.3       1 MOL     0.0167
     16 C17         9.3461   -0.5990  -14.2928 C.3       1 MOL    -0.0102
     17 C18         8.3033   -0.4229  -15.4012 C.3       1 MOL     0.0110
     18 C19         8.8786   -1.7283  -13.3759 C.3       1 MOL     0.0159
     19 C20        10.6826   -0.9984  -14.9136 C.3       1 MOL     0.0159
     20 C21         7.0512    0.2812  -14.8733 C.3       1 MOL     0.0009
     21 C22         5.8830   -0.7076  -14.8645 C.3       1 MOL     0.0002
     22 C23         5.1691   -0.6411  -13.5094 C.3       1 MOL     0.0009
     23 C24         6.1841   -0.8683  -12.3875 C.3       1 MOL     0.0115
     24 C25         5.6386   -0.3715  -11.0423 C.3       1 MOL     0.0805
     25 C7         10.1462    1.5555  -11.4138 C.ar      1 MOL     0.0824
     26 C8         11.2575    3.8092  -10.0775 C.3       1 MOL     0.0553
     27 C9         11.0149    5.0156   -9.2059 C.3       1 MOL    -0.0191
     28 BR1         4.7845   -1.7938  -10.0298 Br        1 MOL    -0.0928
     29 H1          8.8564    4.1230  -14.6421 H         1 MOL     0.2183
@<TRIPOS>BOND
     1   24   23 1 
     2   24   28 1 
     3   18   16 1 
     4   23   22 1 
     5   22   21 1 
     6   21   20 1 
     7   20   17 1 
     8   17   16 1 
     9   16   19 1 
    10   16    5 1 
    11    4    5 ar
    12    4    1 ar
    13    5    8 ar
    14    2    1 1 
    15    1    6 ar
    16    8   25 ar
    17    6   25 ar
    18    6   12 1 
    19   11   10 1 
    20   11   12 1 
    21   15   10 1 
    22   25    3 1 
    23   10    9 2 
    24   12   26 1 
    25    3    7 1 
    26   26    7 1 
    27   26   27 1 
    28    9   27 1 
    29    7   14 1 
    30    7   13 1 
    31   29    2 1 
@<TRIPOS>SUBSTRUCTURE
1 MOL         1
@<TRIPOS>MOLECULE
query molecule
   29    31     1     0     0
SMALL
NO_CHARGE

@<TRIPOS>ATOM
      1 C1          8.3807    0.1858  -10.0443 C.ar      1 MOL     0.0780
      2 O1          9.5558   -0.0245   -9.3810 O.3       1 MOL    -0.3605
      3 O2          7.0566    2.3316  -12.6260 O.3       1 MOL    -0.3392
      4 C2          7.2868   -0.6091   -9.7343 C.ar      1 MOL     0.0376
      5 C3          6.0883   -0.4108  -10.3990 C.ar      1 MOL    -0.0372
      6 C5          8.2925    1.1883  -11.0321 C.ar      1 MOL     0.0200
      7 C6          8.2186    3.0350  -13.1809 C.3       1 MOL     0.0764
      8 C4          6.0164    0.6107  -11.3331 C.ar      1 MOL     0.0379
      9 C10        11.1742    4.1964  -11.4524 C.2       1 MOL     0.0030
     10 C11        10.9049    3.5865  -10.2278 C.2       1 MOL    -0.0365
     11 C12         9.8394    2.6764  -10.1030 C.3       1 MOL    -0.0105
     12 C13         9.3448    2.0315  -11.4206 C.3       1 MOL     0.0574
     13 C14         7.7396    4.3014  -13.8921 C.3       1 MOL     0.0431
     14 C15         8.9573    2.1303  -14.1749 C.3       1 MOL     0.0431
     15 C16        11.6972    3.8797   -9.1222 C.3       1 MOL     0.0167
     16 C17         4.9653   -1.2004  -10.1267 C.3       1 MOL    -0.0102
     17 C18         4.6376   -1.2605   -8.6313 C.3       1 MOL     0.0110
     18 C19         5.2184   -2.6258  -10.6151 C.3       1 MOL     0.0159
     19 C20         3.7684   -0.6318  -10.8850 C.3       1 MOL     0.0159
     20 C21         5.5783   -2.2200   -7.8989 C.3       1 MOL     0.0009
     21 C22         5.6781   -1.8043   -6.4294 C.3       1 MOL     0.0002
     22 C23         5.7683   -3.0570   -5.5502 C.3       1 MOL     0.0009
     23 C24         7.1815   -3.6372   -5.6343 C.3       1 MOL     0.0115
     24 C25         7.2333   -4.8218   -6.6080 C.3       1 MOL     0.0805
     25 C7          7.1363    1.2385  -11.8323 C.ar      1 MOL     0.0824
     26 C8          9.0005    3.3808  -12.0200 C.3       1 MOL     0.0553
     27 C9         10.3446    3.8550  -12.5124 C.3       1 MOL    -0.0191
     28 BR1         9.0217   -5.5682   -6.7565 Br        1 MOL    -0.0928
     29 H1         10.0859   -0.6625   -9.8639 H         1 MOL     0.2183
@<TRIPOS>BOND
     1   24   23 1 
     2   24   28 1 
     3   18   16 1 
     4   23   22 1 
     5   22   21 1 
     6   21   20 1 
     7   20   17 1 
     8   17   16 1 
     9   16   19 1 
    10   16    5 1 
    11    4    5 ar
    12    4    1 ar
    13    5    8 ar
    14    2    1 1 
    15    1    6 ar
    16    8   25 ar
    17    6   25 ar
    18    6   12 1 
    19   11   10 1 
    20   11   12 1 
    21   15   10 1 
    22   25    3 1 
    23   10    9 2 
    24   12   26 1 
    25    3    7 1 
    26   26    7 1 
    27   26   27 1 
    28    9   27 1 
    29    7   14 1 
    30    7   13 1 
    31   29    2 1 
@<TRIPOS>SUBSTRUCTURE
1 MOL         1
@<TRIPOS>MOLECULE
query molecule
   29    31     1     0     0
SMALL
NO_CHARGE

@<TRIPOS>ATOM
      1 C1          6.6232    0.0453  -10.1363 C.ar      1 MOL     0.0780
      2 O1          6.0532   -0.2896  -11.3313 O.3       1 MOL    -0.3605
      3 O2          6.5445   -1.0169   -6.6883 O.3       1 MOL    -0.3392
      4 C2          7.5392    1.0866  -10.1013 C.ar      1 MOL     0.0376
      5 C3          8.1284    1.4376   -8.8983 C.ar      1 MOL    -0.0372
      6 C5          6.2887   -0.6665   -8.9657 C.ar      1 MOL     0.0200
      7 C6          5.7872   -2.2737   -6.6857 C.3       1 MOL     0.0764
      8 C4          7.7483    0.7515   -7.7557 C.ar      1 MOL     0.0379
      9 C10         2.9571   -3.1921   -8.7398 C.2       1 MOL     0.0030
     10 C11         3.0016   -2.0896   -9.5922 C.2       1 MOL    -0.0365
     11 C12         4.0835   -1.1918   -9.5416 C.3       1 MOL    -0.0105
     12 C13         5.3846   -1.7380   -8.9050 C.3       1 MOL     0.0574
     13 C14         5.2615   -2.5339   -5.2734 C.3       1 MOL     0.0431
     14 C15         6.6893   -3.4337   -7.1249 C.3       1 MOL     0.0431
     15 C16         1.9687   -1.8776  -10.5001 C.3       1 MOL     0.0167
     16 C17         9.0679    2.4721   -8.8222 C.3       1 MOL    -0.0102
     17 C18         8.9037    3.4995   -9.9468 C.3       1 MOL     0.0110
     18 C19        10.4755    1.8854   -8.9168 C.3       1 MOL     0.0159
     19 C20         8.9221    3.1710   -7.4726 C.3       1 MOL     0.0159
     20 C21         7.5246    4.1609   -9.8921 C.3       1 MOL     0.0009
     21 C22         6.7542    3.8265  -11.1716 C.3       1 MOL     0.0002
     22 C23         7.7466    3.4991  -12.2934 C.3       1 MOL     0.0009
     23 C24         7.5089    2.0689  -12.7819 C.3       1 MOL     0.0115
     24 C25         8.6744    1.5840  -13.6542 C.3       1 MOL     0.0805
     25 C7          7.0430   -0.4310   -7.8016 C.ar      1 MOL     0.0824
     26 C8          4.6908   -2.0187   -7.5866 C.3       1 MOL     0.0553
     27 C9          4.0225   -3.3422   -7.8619 C.3       1 MOL    -0.0191
     28 BR1        10.0775    0.7481  -12.6006 Br        1 MOL    -0.0928
     29 H1          6.6386   -0.0341  -12.0476 H         1 MOL     0.2183
@<TRIPOS>BOND
     1   24   23 1 
     2   24   28 1 
     3   18   16 1 
     4   23   22 1 
     5   22   21 1 
     6   21   20 1 
     7   20   17 1 
     8   17   16 1 
     9   16   19 1 
    10   16    5 1 
    11    4    5 ar
    12    4    1 ar
    13    5    8 ar
    14    2    1 1 
    15    1    6 ar
    16    8   25 ar
    17    6   25 ar
    18    6   12 1 
    19   11   10 1 
    20   11   12 1 
    21   15   10 1 
    22   25    3 1 
    23   10    9 2 
    24   12   26 1 
    25    3    7 1 
    26   26    7 1 
    27   26   27 1 
    28    9   27 1 
    29    7   14 1 
    30    7   13 1 
    31   29    2 1 
@<TRIPOS>SUBSTRUCTURE
1 MOL         1
@<TRIPOS>MOLECULE
query molecule
   29    31     1     0     0
SMALL
NO_CHARGE

@<TRIPOS>ATOM
      1 C1          5.7081   -1.1694  -10.2884 C.ar      1 MOL     0.0780
      2 O1          5.1158   -1.5895  -11.4451 O.3       1 MOL    -0.3605
      3 O2          8.0153    1.3732   -9.1773 O.3       1 MOL    -0.3392
      4 C2          5.4065   -1.8286   -9.1055 C.ar      1 MOL     0.0376
      5 C3          5.9963   -1.4140   -7.9233 C.ar      1 MOL    -0.0372
      6 C5          6.6010   -0.0780  -10.3036 C.ar      1 MOL     0.0200
      7 C6          8.1902    2.2687  -10.3265 C.3       1 MOL     0.0764
      8 C4          6.9041   -0.3680   -7.9735 C.ar      1 MOL     0.0379
      9 C10         8.2665    1.4207  -13.8404 C.2       1 MOL     0.0030
     10 C11         7.8870    0.0863  -13.7009 C.2       1 MOL    -0.0365
     11 C12         7.4558   -0.4064  -12.4558 C.3       1 MOL    -0.0105
     12 C13         6.9575    0.6555  -11.4456 C.3       1 MOL     0.0574
     13 C14         9.4927    3.0511  -10.1528 C.3       1 MOL     0.0431
     14 C15         7.0091    3.2426  -10.4206 C.3       1 MOL     0.0431
     15 C16         7.9341   -0.7628  -14.8021 C.3       1 MOL     0.0167
     16 C17         5.7080   -2.0422   -6.7064 C.3       1 MOL    -0.0102
     17 C18         4.2778   -1.7709   -6.2289 C.3       1 MOL     0.0110
     18 C19         6.6710   -1.5347   -5.6342 C.3       1 MOL     0.0159
     19 C20         5.9107   -3.5467   -6.8692 C.3       1 MOL     0.0159
     20 C21         3.4611   -3.0639   -6.1718 C.3       1 MOL     0.0009
     21 C22         3.0753   -3.4795   -7.5934 C.3       1 MOL     0.0002
     22 C23         3.2993   -4.9867   -7.7624 C.3       1 MOL     0.0009
     23 C24         2.1688   -5.7501   -7.0697 C.3       1 MOL     0.0115
     24 C25         2.1575   -7.2239   -7.4961 C.3       1 MOL     0.0805
     25 C7          7.0288    0.4529   -9.0729 C.ar      1 MOL     0.0824
     26 C8          8.2934    1.3723  -11.4509 C.3       1 MOL     0.0553
     27 C9          8.1922    2.2103  -12.7004 C.3       1 MOL    -0.0191
     28 BR1         0.4341   -7.7639   -8.2143 Br        1 MOL    -0.0928
     29 H1          4.4109   -0.9828  -11.6821 H         1 MOL     0.2183
@<TRIPOS>BOND
     1   24   23 1 
     2   24   28 1 
     3   18   16 1 
     4   23   22 1 
     5   22   21 1 
     6   21   20 1 
     7   20   17 1 
     8   17   16 1 
     9   16   19 1 
    10   16    5 1 
    11    4    5 ar
    12    4    1 ar
    13    5    8 ar
    14    2    1 1 
    15    1    6 ar
    16    8   25 ar
    17    6   25 ar
    18    6   12 1 
    19   11   10 1 
    20   11   12 1 
    21   15   10 1 
    22   25    3 1 
    23   10    9 2 
    24   12   26 1 
    25    3    7 1 
    26   26    7 1 
    27   26   27 1 
    28    9   27 1 
    29    7   14 1 
    30    7   13 1 
    31   29    2 1 
@<TRIPOS>SUBSTRUCTURE
1 MOL         1
@<TRIPOS>MOLECULE
query molecule
   29    31     1     0     0
SMALL
NO_CHARGE

@<TRIPOS>ATOM
      1 C1          8.6854    2.6231  -13.0061 C.ar      1 MOL     0.0780
      2 O1          9.1709    3.7845  -13.5358 O.3       1 MOL    -0.3605
      3 O2          8.0703    1.1543   -9.7678 O.3       1 MOL    -0.3392
      4 C2          8.2506    1.6262  -13.8674 C.ar      1 MOL     0.0376
      5 C3          7.7532    0.4433  -13.3470 C.ar      1 MOL    -0.0372
      6 C5          8.6213    2.4527  -11.6078 C.ar      1 MOL     0.0200
      7 C6          8.2722    2.2413   -8.8030 C.3       1 MOL     0.0764
      8 C4          7.7431    0.2842  -11.9703 C.ar      1 MOL     0.0379
      9 C10        10.6689    4.9451   -8.9385 C.2       1 MOL     0.0030
     10 C11        11.1269    4.7007  -10.2326 C.2       1 MOL    -0.0365
     11 C12        10.4826    3.7549  -11.0508 C.3       1 MOL    -0.0105
     12 C13         9.0258    3.4058  -10.6605 C.3       1 MOL     0.0574
     13 C14         8.5411    1.6378   -7.4238 C.3       1 MOL     0.0431
     14 C15         7.0256    3.1328   -8.7446 C.3       1 MOL     0.0431
     15 C16        12.2283    5.3990  -10.7178 C.3       1 MOL     0.0167
     16 C17         7.2909   -0.5814  -14.1807 C.3       1 MOL    -0.0102
     17 C18         8.3865   -1.5932  -14.5315 C.3       1 MOL     0.0110
     18 C19         6.7679    0.0229  -15.4829 C.3       1 MOL     0.0159
     19 C20         6.1404   -1.3025  -13.4826 C.3       1 MOL     0.0159
     20 C21         9.6352   -0.8898  -15.0684 C.3       1 MOL     0.0009
     21 C22         9.2579   -0.0639  -16.3004 C.3       1 MOL     0.0002
     22 C23        10.1692   -0.4496  -17.4713 C.3       1 MOL     0.0009
     23 C24        10.0668   -1.9554  -17.7215 C.3       1 MOL     0.0115
     24 C25         8.7269   -2.3148  -18.3770 C.3       1 MOL     0.0805
     25 C7          7.9304    1.3366  -11.1013 C.ar      1 MOL     0.0824
     26 C8          9.4481    2.9201   -9.2879 C.3       1 MOL     0.0553
     27 C9          9.5643    4.2138   -8.5219 C.3       1 MOL    -0.0191
     28 BR1         7.8740   -3.8324  -17.5127 Br        1 MOL    -0.0928
     29 H1          9.9717    4.0378  -13.0712 H         1 MOL     0.2183
@<TRIPOS>BOND
     1   24   23 1 
     2   24   28 1 
     3   18   16 1 
     4   23   22 1 
     5   22   21 1 
     6   21   20 1 
     7   20   17 1 
     8   17   16 1 
     9   16   19 1 
    10   16    5 1 
    11    4    5 ar
    12    4    1 ar
    13    5    8 ar
    14    2    1 1 
    15    1    6 ar
    16    8   25 ar
    17    6   25 ar
    18    6   12 1 
    19   11   10 1 
    20   11   12 1 
    21   15   10 1 
    22   25    3 1 
    23   10    9 2 
    24   12   26 1 
    25    3    7 1 
    26   26    7 1 
    27   26   27 1 
    28    9   27 1 
    29    7   14 1 
    30    7   13 1 
    31   29    2 1 
@<TRIPOS>SUBSTRUCTURE
1 MOL         1
@<TRIPOS>MOLECULE
query molecule
   29    31     1     0     0
SMALL
NO_CHARGE

@<TRIPOS>ATOM
      1 C1          6.0120    1.2581   -9.9619 C.ar      1 MOL     0.0780
      2 O1          5.3054    1.8851  -10.9482 O.3       1 MOL    -0.3605
      3 O2          9.2298    1.4944   -8.3456 O.3       1 MOL    -0.3392
      4 C2          5.4224    0.1988   -9.2875 C.ar      1 MOL     0.0376
      5 C3          6.1239   -0.4465   -8.2831 C.ar      1 MOL    -0.0372
      6 C5          7.3129    1.6928   -9.6344 C.ar      1 MOL     0.0200
      7 C6          9.8181    2.7477   -8.8317 C.3       1 MOL     0.0764
      8 C4          7.4172   -0.0283   -8.0120 C.ar      1 MOL     0.0379
      9 C10         9.5283    4.2378  -12.1131 C.2       1 MOL     0.0030
     10 C11         8.5651    3.3620  -12.6124 C.2       1 MOL    -0.0365
     11 C12         7.9384    2.4314  -11.7636 C.3       1 MOL    -0.0105
     12 C13         7.9854    2.7588  -10.2513 C.3       1 MOL     0.0574
     13 C14        11.3333    2.6957   -8.6312 C.3       1 MOL     0.0431
     14 C15         9.2338    3.9381   -8.0611 C.3       1 MOL     0.0431
     15 C16         8.2206    3.4108  -13.9596 C.3       1 MOL     0.0167
     16 C17         5.5603   -1.5098   -7.5686 C.3       1 MOL    -0.0102
     17 C18         4.1014   -1.2492   -7.1801 C.3       1 MOL     0.0110
     18 C19         6.3596   -1.7383   -6.2868 C.3       1 MOL     0.0159
     19 C20         5.6390   -2.7730   -8.4226 C.3       1 MOL     0.0159
     20 C21         3.3003   -2.5526   -7.1403 C.3       1 MOL     0.0009
     21 C22         2.8610   -2.9177   -8.5602 C.3       1 MOL     0.0002
     22 C23         2.8633   -1.6582   -9.4343 C.3       1 MOL     0.0009
     23 C24         3.2065   -2.0395  -10.8756 C.3       1 MOL     0.0115
     24 C25         4.7108   -2.2963  -11.0340 C.3       1 MOL     0.0805
     25 C7          7.9255    1.1617   -8.4845 C.ar      1 MOL     0.0824
     26 C8          9.5014    2.7558  -10.2382 C.3       1 MOL     0.0553
     27 C9          9.8201    4.1344  -10.7594 C.3       1 MOL    -0.0191
     28 BR1         5.5442   -1.0312  -12.2515 Br        1 MOL    -0.0928
     29 H1          5.3637    2.8356  -10.8286 H         1 MOL     0.2183
@<TRIPOS>BOND
     1   24   23 1 
     2   24   28 1 
     3   18   16 1 
     4   23   22 1 
     5   22   21 1 
     6   21   20 1 
     7   20   17 1 
     8   17   16 1 
     9   16   19 1 
    10   16    5 1 
    11    4    5 ar
    12    4    1 ar
    13    5    8 ar
    14    2    1 1 
    15    1    6 ar
    16    8   25 ar
    17    6   25 ar
    18    6   12 1 
    19   11   10 1 
    20   11   12 1 
    21   15   10 1 
    22   25    3 1 
    23   10    9 2 
    24   12   26 1 
    25    3    7 1 
    26   26    7 1 
    27   26   27 1 
    28    9   27 1 
    29    7   14 1 
    30    7   13 1 
    31   29    2 1 
@<TRIPOS>SUBSTRUCTURE
1 MOL         1
@<TRIPOS>MOLECULE
query molecule
   29    31     1     0     0
SMALL
NO_CHARGE

@<TRIPOS>ATOM
      1 C1          7.9839    1.0831   -8.4721 C.ar      1 MOL     0.0780
      2 O1          7.7808    1.2391   -7.1306 O.3       1 MOL    -0.3605
      3 O2          6.5654   -0.7341  -11.2485 O.3       1 MOL    -0.3392
      4 C2          9.0091    1.7933   -9.0798 C.ar      1 MOL     0.0376
      5 C3          9.2272    1.6487  -10.4396 C.ar      1 MOL    -0.0372
      6 C5          7.1554    0.2215   -9.2202 C.ar      1 MOL     0.0200
      7 C6          5.3208   -1.3182  -10.7357 C.3       1 MOL     0.0764
      8 C4          8.4274    0.7615  -11.1426 C.ar      1 MOL     0.0379
      9 C10         4.6443   -2.6081   -7.4265 C.2       1 MOL     0.0030
     10 C11         5.8301   -2.1788   -6.8318 C.2       1 MOL    -0.0365
     11 C12         6.7097   -1.3285   -7.5263 C.3       1 MOL    -0.0105
     12 C13         6.0901   -0.5272   -8.6969 C.3       1 MOL     0.0574
     13 C14         4.9172   -2.4912  -11.6303 C.3       1 MOL     0.0431
     14 C15         4.2069   -0.2639  -10.7294 C.3       1 MOL     0.0431
     15 C16         6.1440   -2.5937   -5.5413 C.3       1 MOL     0.0167
     16 C17        10.2411    2.3577  -11.0938 C.3       1 MOL    -0.0102
     17 C18         9.7470    3.6844  -11.6795 C.3       1 MOL     0.0110
     18 C19        10.7940    1.5099  -12.2383 C.3       1 MOL     0.0159
     19 C20        11.3693    2.6310  -10.1020 C.3       1 MOL     0.0159
     20 C21         8.3285    4.0035  -11.2019 C.3       1 MOL     0.0009
     21 C22         7.3190    3.3591  -12.1548 C.3       1 MOL     0.0002
     22 C23         8.0201    2.9914  -13.4678 C.3       1 MOL     0.0009
     23 C24         7.6651    1.5529  -13.8489 C.3       1 MOL     0.0115
     24 C25         8.8647    0.8403  -14.4870 C.3       1 MOL     0.0805
     25 C7          7.2615    0.2433  -10.6230 C.ar      1 MOL     0.0824
     26 C8          5.6771   -1.7930   -9.4219 C.3       1 MOL     0.0553
     27 C9          4.3950   -2.1529   -8.7145 C.3       1 MOL    -0.0191
     28 BR1         8.8940   -1.0578  -14.0698 Br        1 MOL    -0.0928
     29 H1          8.4554    1.8190   -6.7703 H         1 MOL     0.2183
@<TRIPOS>BOND
     1   24   23 1 
     2   24   28 1 
     3   18   16 1 
     4   23   22 1 
     5   22   21 1 
     6   21   20 1 
     7   20   17 1 
     8   17   16 1 
     9   16   19 1 
    10   16    5 1 
    11    4    5 ar
    12    4    1 ar
    13    5    8 ar
    14    2    1 1 
    15    1    6 ar
    16    8   25 ar
    17    6   25 ar
    18    6   12 1 
    19   11   10 1 
    20   11   12 1 
    21   15   10 1 
    22   25    3 1 
    23   10    9 2 
    24   12   26 1 
    25    3    7 1 
    26   26    7 1 
    27   26   27 1 
    28    9   27 1 
    29    7   14 1 
    30    7   13 1 
    31   29    2 1 
@<TRIPOS>SUBSTRUCTURE
1 MOL         1
@<TRIPOS>MOLECULE
query molecule
   29    31     1     0     0
SMALL
NO_CHARGE

@<TRIPOS>ATOM
      1 C1          8.1485    0.6812  -11.5121 C.ar      1 MOL     0.0780
      2 O1          7.1062    0.3163  -10.7086 O.3       1 MOL    -0.3605
      3 O2         10.9499    2.9556  -11.4746 O.3       1 MOL    -0.3392
      4 C2          8.2971    0.0535  -12.7404 C.ar      1 MOL     0.0376
      5 C3          9.3498    0.4098  -13.5664 C.ar      1 MOL    -0.0372
      6 C5          9.0583    1.6720  -11.0888 C.ar      1 MOL     0.0200
      7 C6         11.0071    3.4797  -10.1052 C.3       1 MOL     0.0764
      8 C4         10.2029    1.4178  -13.1456 C.ar      1 MOL     0.0379
      9 C10         8.2629    4.2359   -7.8759 C.2       1 MOL     0.0030
     10 C11         7.2502    3.6878   -8.6620 C.2       1 MOL    -0.0365
     11 C12         7.5646    2.9393   -9.8109 C.3       1 MOL    -0.0105
     12 C13         8.9960    2.3522   -9.8630 C.3       1 MOL     0.0574
     13 C14        11.7944    4.7908  -10.1076 C.3       1 MOL     0.0431
     14 C15        11.6920    2.4655   -9.1808 C.3       1 MOL     0.0431
     15 C16         5.9192    3.8817   -8.3057 C.3       1 MOL     0.0167
     16 C17         9.5438   -0.2090  -14.8066 C.3       1 MOL    -0.0102
     17 C18         8.4018   -1.1622  -15.1732 C.3       1 MOL     0.0110
     18 C19        10.8420   -1.0140  -14.7728 C.3       1 MOL     0.0159
     19 C20         9.6680    0.8691  -15.8805 C.3       1 MOL     0.0159
     20 C21         7.0907   -0.3993  -15.3762 C.3       1 MOL     0.0009
     21 C22         5.9195   -1.2882  -14.9513 C.3       1 MOL     0.0002
     22 C23         5.1892   -0.6391  -13.7699 C.3       1 MOL     0.0009
     23 C24         5.5875   -1.3478  -12.4738 C.3       1 MOL     0.0115
     24 C25         4.7151   -0.8818  -11.3009 C.3       1 MOL     0.0805
     25 C7         10.2270    1.8737  -11.8459 C.ar      1 MOL     0.0824
     26 C8          9.6266    3.7279   -9.7719 C.3       1 MOL     0.0553
     27 C9          9.5673    4.0002   -8.2900 C.3       1 MOL    -0.0191
     28 BR1         4.4235   -2.2958   -9.9997 Br        1 MOL    -0.0928
     29 H1          7.4430   -0.1478   -9.9389 H         1 MOL     0.2183
@<TRIPOS>BOND
     1   24   23 1 
     2   24   28 1 
     3   18   16 1 
     4   23   22 1 
     5   22   21 1 
     6   21   20 1 
     7   20   17 1 
     8   17   16 1 
     9   16   19 1 
    10   16    5 1 
    11    4    5 ar
    12    4    1 ar
    13    5    8 ar
    14    2    1 1 
    15    1    6 ar
    16    8   25 ar
    17    6   25 ar
    18    6   12 1 
    19   11   10 1 
    20   11   12 1 
    21   15   10 1 
    22   25    3 1 
    23   10    9 2 
    24   12   26 1 
    25    3    7 1 
    26   26    7 1 
    27   26   27 1 
    28    9   27 1 
    29    7   14 1 
    30    7   13 1 
    31   29    2 1 
@<TRIPOS>SUBSTRUCTURE
1 MOL         1
@<TRIPOS>MOLECULE
query molecule
   29    31     1     0     0
SMALL
NO_CHARGE

@<TRIPOS>ATOM
      1 C1          7.2261   -0.0832   -8.3051 C.ar      1 MOL     0.0780
      2 O1          8.1290    0.8635   -7.9131 O.3       1 MOL    -0.3605
      3 O2          5.6769   -1.2795  -11.3368 O.3       1 MOL    -0.3392
      4 C2          6.6678   -0.9130   -7.3436 C.ar      1 MOL     0.0376
      5 C3          5.7525   -1.8798   -7.7242 C.ar      1 MOL    -0.0372
      6 C5          6.8808   -0.2147   -9.6660 C.ar      1 MOL     0.0200
      7 C6          6.3998   -0.6191  -12.4297 C.3       1 MOL     0.0764
      8 C4          5.3971   -1.9579   -9.0616 C.ar      1 MOL     0.0379
      9 C10         7.7773    2.7228  -12.5114 C.2       1 MOL     0.0030
     10 C11         7.5672    3.0255  -11.1667 C.2       1 MOL    -0.0365
     11 C12         7.1384    2.0302  -10.2698 C.3       1 MOL    -0.0105
     12 C13         7.3997    0.5687  -10.7082 C.3       1 MOL     0.0574
     13 C14         5.5288   -0.6422  -13.6867 C.3       1 MOL     0.0431
     14 C15         7.7224   -1.3461  -12.7021 C.3       1 MOL     0.0431
     15 C16         7.7849    4.3215  -10.7094 C.3       1 MOL     0.0167
     16 C17         5.1771   -2.7465   -6.7879 C.3       1 MOL    -0.0102
     17 C18         3.8365   -2.2305   -6.2553 C.3       1 MOL     0.0110
     18 C19         6.1265   -2.9134   -5.6026 C.3       1 MOL     0.0159
     19 C20         4.9709   -4.1106   -7.4418 C.3       1 MOL     0.0159
     20 C21         2.8742   -3.3863   -5.9721 C.3       1 MOL     0.0009
     21 C22         2.1325   -3.7517   -7.2600 C.3       1 MOL     0.0002
     22 C23         0.6528   -3.9984   -6.9437 C.3       1 MOL     0.0009
     23 C24         0.0323   -2.7181   -6.3809 C.3       1 MOL     0.0115
     24 C25        -1.4763   -2.8886   -6.1594 C.3       1 MOL     0.0805
     25 C7          6.1110   -1.3259  -10.0560 C.ar      1 MOL     0.0824
     26 C8          6.5678    0.7352  -11.9646 C.3       1 MOL     0.0553
     27 C9          7.5427    1.4094  -12.8967 C.3       1 MOL    -0.0191
     28 BR1        -2.2920   -4.0146   -7.5175 Br        1 MOL    -0.0928
     29 H1          8.1133    0.9439   -6.9568 H         1 MOL     0.2183
@<TRIPOS>BOND
     1   24   23 1 
     2   24   28 1 
     3   18   16 1 
     4   23   22 1 
     5   22   21 1 
     6   21   20 1 
     7   20   17 1 
     8   17   16 1 
     9   16   19 1 
    10   16    5 1 
    11    4    5 ar
    12    4    1 ar
    13    5    8 ar
    14    2    1 1 
    15    1    6 ar
    16    8   25 ar
    17    6   25 ar
    18    6   12 1 
    19   11   10 1 
    20   11   12 1 
    21   15   10 1 
    22   25    3 1 
    23   10    9 2 
    24   12   26 1 
    25    3    7 1 
    26   26    7 1 
    27   26   27 1 
    28    9   27 1 
    29    7   14 1 
    30    7   13 1 
    31   29    2 1 
@<TRIPOS>SUBSTRUCTURE
1 MOL         1
@<TRIPOS>MOLECULE
query molecule
   29    31     1     0     0
SMALL
NO_CHARGE

@<TRIPOS>ATOM
      1 C1          7.0945    0.4293   -7.7823 C.ar      1 MOL     0.0780
      2 O1          7.7932    0.1437   -6.6442 O.3       1 MOL    -0.3605
      3 O2          4.7171   -1.1532   -9.9882 O.3       1 MOL    -0.3392
      4 C2          7.2448    1.6805   -8.3625 C.ar      1 MOL     0.0376
      5 C3          6.5418    1.9875   -9.5153 C.ar      1 MOL    -0.0372
      6 C5          6.2302   -0.5324   -8.3450 C.ar      1 MOL     0.0200
      7 C6          4.3168   -2.3893   -9.3062 C.3       1 MOL     0.0764
      8 C4          5.7340    1.0087  -10.0725 C.ar      1 MOL     0.0379
      9 C10         6.3362   -4.5719   -7.2494 C.2       1 MOL     0.0030
     10 C11         7.4619   -3.7516   -7.1864 C.2       1 MOL    -0.0365
     11 C12         7.4165   -2.4380   -7.6880 C.3       1 MOL    -0.0105
     12 C13         6.0055   -1.8162   -7.8250 C.3       1 MOL     0.0574
     13 C14         3.7362   -3.3592  -10.3363 C.3       1 MOL     0.0431
     14 C15         3.2652   -2.0825   -8.2328 C.3       1 MOL     0.0431
     15 C16         8.6377   -4.2361   -6.6217 C.3       1 MOL     0.0167
     16 C17         6.6538    3.2428  -10.1239 C.3       1 MOL    -0.0102
     17 C18         7.5418    3.2139  -11.3721 C.3       1 MOL     0.0110
     18 C19         7.2610    4.2337   -9.1320 C.3       1 MOL     0.0159
     19 C20         5.2585    3.7305  -10.5063 C.3       1 MOL     0.0159
     20 C21         8.9714    2.7946  -11.0220 C.3       1 MOL     0.0009
     21 C22         9.6232    3.8875  -10.1718 C.3       1 MOL     0.0002
     22 C23        10.2863    3.2513   -8.9447 C.3       1 MOL     0.0009
     23 C24        11.3424    2.2432   -9.4021 C.3       1 MOL     0.0115
     24 C25        10.7849    0.8139   -9.3813 C.3       1 MOL     0.0805
     25 C7          5.3776   -0.1343   -9.3911 C.ar      1 MOL     0.0824
     26 C8          5.5531   -2.9073   -8.7754 C.3       1 MOL     0.0553
     27 C9          5.1978   -4.0217   -7.8237 C.3       1 MOL    -0.0191
     28 BR1        10.4178    0.1464  -11.1693 Br        1 MOL    -0.0928
     29 H1          7.6499   -0.7741   -6.4027 H         1 MOL     0.2183
@<TRIPOS>BOND
     1   24   23 1 
     2   24   28 1 
     3   18   16 1 
     4   23   22 1 
     5   22   21 1 
     6   21   20 1 
     7   20   17 1 
     8   17   16 1 
     9   16   19 1 
    10   16    5 1 
    11    4    5 ar
    12    4    1 ar
    13    5    8 ar
    14    2    1 1 
    15    1    6 ar
    16    8   25 ar
    17    6   25 ar
    18    6   12 1 
    19   11   10 1 
    20   11   12 1 
    21   15   10 1 
    22   25    3 1 
    23   10    9 2 
    24   12   26 1 
    25    3    7 1 
    26   26    7 1 
    27   26   27 1 
    28    9   27 1 
    29    7   14 1 
    30    7   13 1 
    31   29    2 1 
@<TRIPOS>SUBSTRUCTURE
1 MOL         1
@<TRIPOS>MOLECULE
query molecule
   29    31     1     0     0
SMALL
NO_CHARGE

@<TRIPOS>ATOM
      1 C1          6.5775   -5.5794   -7.4980 C.ar      1 MOL     0.0780
      2 O1          6.4685   -6.8920   -7.8591 O.3       1 MOL    -0.3605
      3 O2          9.0583   -3.3141   -6.1802 O.3       1 MOL    -0.3392
      4 C2          5.4735   -4.7521   -7.6442 C.ar      1 MOL     0.0376
      5 C3          5.5676   -3.4181   -7.2852 C.ar      1 MOL    -0.0372
      6 C5          7.7971   -5.0800   -6.9960 C.ar      1 MOL     0.0200
      7 C6         10.3253   -4.0527   -6.2306 C.3       1 MOL     0.0764
      8 C4          6.7638   -2.9638   -6.7527 C.ar      1 MOL     0.0379
      9 C10        10.8876   -7.5825   -5.6865 C.2       1 MOL     0.0030
     10 C11         9.5468   -7.9613   -5.6327 C.2       1 MOL    -0.0365
     11 C12         8.5323   -7.0427   -5.9578 C.3       1 MOL    -0.0105
     12 C13         8.9671   -5.8354   -6.8236 C.3       1 MOL     0.0574
     13 C14        11.3128   -3.4122   -5.2541 C.3       1 MOL     0.0431
     14 C15        10.9020   -4.0139   -7.6511 C.3       1 MOL     0.0431
     15 C16         9.2111   -9.2581   -5.2561 C.3       1 MOL     0.0167
     16 C17         4.4821   -2.5467   -7.4304 C.3       1 MOL    -0.0102
     17 C18         4.3874   -1.9555   -8.8407 C.3       1 MOL     0.0110
     18 C19         4.6240   -1.3920   -6.4400 C.3       1 MOL     0.0159
     19 C20         3.1960   -3.3053   -7.1120 C.3       1 MOL     0.0159
     20 C21         5.6186   -1.1069   -9.1665 C.3       1 MOL     0.0009
     21 C22         5.2766    0.3723   -8.9732 C.3       1 MOL     0.0002
     22 C23         5.9874    1.2044  -10.0469 C.3       1 MOL     0.0009
     23 C24         6.8961    2.2347   -9.3736 C.3       1 MOL     0.0115
     24 C25         8.2930    2.2353  -10.0085 C.3       1 MOL     0.0805
     25 C7          7.9323   -3.6894   -6.8299 C.ar      1 MOL     0.0824
     26 C8          9.9714   -5.3772   -5.7845 C.3       1 MOL     0.0553
     27 C9         11.1487   -6.2744   -6.0724 C.3       1 MOL    -0.0191
     28 BR1         9.6093    3.1108   -8.8779 Br        1 MOL    -0.0928
     29 H1          7.0387   -7.0652   -8.6114 H         1 MOL     0.2183
@<TRIPOS>BOND
     1   24   23 1 
     2   24   28 1 
     3   18   16 1 
     4   23   22 1 
     5   22   21 1 
     6   21   20 1 
     7   20   17 1 
     8   17   16 1 
     9   16   19 1 
    10   16    5 1 
    11    4    5 ar
    12    4    1 ar
    13    5    8 ar
    14    2    1 1 
    15    1    6 ar
    16    8   25 ar
    17    6   25 ar
    18    6   12 1 
    19   11   10 1 
    20   11   12 1 
    21   15   10 1 
    22   25    3 1 
    23   10    9 2 
    24   12   26 1 
    25    3    7 1 
    26   26    7 1 
    27   26   27 1 
    28    9   27 1 
    29    7   14 1 
    30    7   13 1 
    31   29    2 1 
@<TRIPOS>SUBSTRUCTURE
1 MOL         1
@<TRIPOS>MOLECULE
query molecule
   29    31     1     0     0
SMALL
NO_CHARGE

@<TRIPOS>ATOM
      1 C1          7.5985    1.0136  -13.3183 C.ar      1 MOL     0.0780
      2 O1          7.7296    2.3676  -13.1969 O.3       1 MOL    -0.3605
      3 O2          6.4966   -1.8034  -11.3505 O.3       1 MOL    -0.3392
      4 C2          7.9498    0.4132  -14.5186 C.ar      1 MOL     0.0376
      5 C3          7.8207   -0.9583  -14.6595 C.ar      1 MOL    -0.0372
      6 C5          7.1044    0.2487  -12.2416 C.ar      1 MOL     0.0200
      7 C6          5.8758   -1.2232  -10.1542 C.3       1 MOL     0.0764
      8 C4          7.3753   -1.6915  -13.5710 C.ar      1 MOL     0.0379
      9 C10         6.8445    1.7521   -8.3427 C.2       1 MOL     0.0030
     10 C11         7.7987    2.2022   -9.2542 C.2       1 MOL    -0.0365
     11 C12         7.9378    1.5790  -10.5078 C.3       1 MOL    -0.0105
     12 C13         6.7142    0.7670  -10.9972 C.3       1 MOL     0.0574
     13 C14         5.8432   -2.2800   -9.0492 C.3       1 MOL     0.0431
     14 C15         4.4482   -0.7615  -10.4722 C.3       1 MOL     0.0431
     15 C16         8.6176    3.2768   -8.9213 C.3       1 MOL     0.0167
     16 C17         8.1501   -1.6013  -15.8582 C.3       1 MOL    -0.0102
     17 C18         9.3026   -0.9135  -16.5969 C.3       1 MOL     0.0110
     18 C19         6.9318   -1.6081  -16.7802 C.3       1 MOL     0.0159
     19 C20         8.5360   -3.0463  -15.5515 C.3       1 MOL     0.0159
     20 C21        10.6228   -1.0875  -15.8425 C.3       1 MOL     0.0009
     21 C22        11.2195    0.2905  -15.5467 C.3       1 MOL     0.0002
     22 C23        11.3278    0.4842  -14.0298 C.3       1 MOL     0.0009
     23 C24        10.4952    1.6974  -13.6108 C.3       1 MOL     0.0115
     24 C25        10.5455    1.9015  -12.0910 C.3       1 MOL     0.0805
     25 C7          6.7910   -1.1037  -12.4706 C.ar      1 MOL     0.0824
     26 C8          6.7651   -0.1484   -9.7898 C.3       1 MOL     0.0553
     27 C9          6.0611    0.6776   -8.7429 C.3       1 MOL    -0.0191
     28 BR1        10.6605    3.7810  -11.6093 Br        1 MOL    -0.0928
     29 H1          7.0500    2.7033  -12.6082 H         1 MOL     0.2183
@<TRIPOS>BOND
     1   24   23 1 
     2   24   28 1 
     3   18   16 1 
     4   23   22 1 
     5   22   21 1 
     6   21   20 1 
     7   20   17 1 
     8   17   16 1 
     9   16   19 1 
    10   16    5 1 
    11    4    5 ar
    12    4    1 ar
    13    5    8 ar
    14    2    1 1 
    15    1    6 ar
    16    8   25 ar
    17    6   25 ar
    18    6   12 1 
    19   11   10 1 
    20   11   12 1 
    21   15   10 1 
    22   25    3 1 
    23   10    9 2 
    24   12   26 1 
    25    3    7 1 
    26   26    7 1 
    27   26   27 1 
    28    9   27 1 
    29    7   14 1 
    30    7   13 1 
    31   29    2 1 
@<TRIPOS>SUBSTRUCTURE
1 MOL         1
@<TRIPOS>MOLECULE
query molecule
   29    31     1     0     0
SMALL
NO_CHARGE

@<TRIPOS>ATOM
      1 C1          9.3713    3.1426  -13.0964 C.ar      1 MOL     0.0780
      2 O1          8.9123    4.3447  -13.5541 O.3       1 MOL    -0.3605
      3 O2         11.1124    1.8032  -10.2334 O.3       1 MOL    -0.3392
      4 C2          9.1567    2.0084  -13.8659 C.ar      1 MOL     0.0376
      5 C3          9.6134    0.7812  -13.4154 C.ar      1 MOL    -0.0372
      6 C5         10.0411    3.0632  -11.8580 C.ar      1 MOL     0.0200
      7 C6         11.1567    2.8983   -9.2577 C.3       1 MOL     0.0764
      8 C4         10.3078    0.7383  -12.2168 C.ar      1 MOL     0.0379
      9 C10        11.5215    6.4416   -9.8771 C.2       1 MOL     0.0030
     10 C11        11.3969    6.3847  -11.2646 C.2       1 MOL    -0.0365
     11 C12        11.0213    5.1864  -11.8988 C.3       1 MOL    -0.0105
     12 C13        10.2940    4.1505  -11.0076 C.3       1 MOL     0.0574
     13 C14        12.2800    2.6262   -8.2562 C.3       1 MOL     0.0431
     14 C15         9.8167    3.0002   -8.5185 C.3       1 MOL     0.0431
     15 C16        11.6444    7.5224  -12.0266 C.3       1 MOL     0.0167
     16 C17         9.4048   -0.3891  -14.1541 C.3       1 MOL    -0.0102
     17 C18         8.3010   -0.2323  -15.2048 C.3       1 MOL     0.0110
     18 C19         9.0030   -1.5197  -13.2082 C.3       1 MOL     0.0159
     19 C20        10.7107   -0.7741  -14.8452 C.3       1 MOL     0.0159
     20 C21         7.0584    0.4294  -14.6045 C.3       1 MOL     0.0009
     21 C22         5.8914   -0.5600  -14.6447 C.3       1 MOL     0.0002
     22 C23         5.6528   -1.0084  -16.0912 C.3       1 MOL     0.0009
     23 C24         6.8678   -1.7947  -16.5873 C.3       1 MOL     0.0115
     24 C25         6.7649   -2.0757  -18.0921 C.3       1 MOL     0.0805
     25 C7         10.3151    1.7896  -11.3266 C.ar      1 MOL     0.0824
     26 C8         11.4692    4.0587  -10.0542 C.3       1 MOL     0.0553
     27 C9         11.2570    5.2696   -9.1809 C.3       1 MOL    -0.0191
     28 BR1         7.9971   -0.9841  -19.1255 Br        1 MOL    -0.0928
     29 H1          8.5727    4.8587  -12.8181 H         1 MOL     0.2183
@<TRIPOS>BOND
     1   24   23 1 
     2   24   28 1 
     3   18   16 1 
     4   23   22 1 
     5   22   21 1 
     6   21   20 1 
     7   20   17 1 
     8   17   16 1 
     9   16   19 1 
    10   16    5 1 
    11    4    5 ar
    12    4    1 ar
    13    5    8 ar
    14    2    1 1 
    15    1    6 ar
    16    8   25 ar
    17    6   25 ar
    18    6   12 1 
    19   11   10 1 
    20   11   12 1 
    21   15   10 1 
    22   25    3 1 
    23   10    9 2 
    24   12   26 1 
    25    3    7 1 
    26   26    7 1 
    27   26   27 1 
    28    9   27 1 
    29    7   14 1 
    30    7   13 1 
    31   29    2 1 
@<TRIPOS>SUBSTRUCTURE
1 MOL         1
@<TRIPOS>MOLECULE
query molecule
   29    31     1     0     0
SMALL
NO_CHARGE

@<TRIPOS>ATOM
      1 C1          6.1832   -1.0149  -13.1178 C.ar      1 MOL     0.0780
      2 O1          6.1300   -0.9481  -14.4808 O.3       1 MOL    -0.3605
      3 O2          8.2968    0.1066  -10.4163 O.3       1 MOL    -0.3392
      4 C2          5.1694   -1.6773  -12.4410 C.ar      1 MOL     0.0376
      5 C3          5.2066   -1.7522  -11.0588 C.ar      1 MOL    -0.0372
      6 C5          7.2478   -0.4099  -12.4182 C.ar      1 MOL     0.0200
      7 C6          9.2593    1.0272  -11.0320 C.3       1 MOL     0.0764
      8 C4          6.2871   -1.1881  -10.3992 C.ar      1 MOL     0.0379
      9 C10        10.7704    0.8305  -14.3108 C.2       1 MOL     0.0030
     10 C11         9.9979   -0.2265  -14.7902 C.2       1 MOL    -0.0365
     11 C12         8.8959   -0.6967  -14.0528 C.3       1 MOL    -0.0105
     12 C13         8.3091    0.2891  -13.0135 C.3       1 MOL     0.0574
     13 C14        10.4797    1.1536  -10.1190 C.3       1 MOL     0.0431
     14 C15         8.6168    2.4054  -11.2323 C.3       1 MOL     0.0431
     15 C16        10.3190   -0.8189  -16.0076 C.3       1 MOL     0.0167
     16 C17         4.1964   -2.3984  -10.3372 C.3       1 MOL    -0.0102
     17 C18         4.2681   -2.1063   -8.8350 C.3       1 MOL     0.0110
     18 C19         4.3207   -3.9084  -10.5339 C.3       1 MOL     0.0159
     19 C20         2.8411   -1.9476  -10.8766 C.3       1 MOL     0.0159
     20 C21         5.3152   -2.9885   -8.1513 C.3       1 MOL     0.0009
     21 C22         5.5315   -2.4957   -6.7185 C.3       1 MOL     0.0002
     22 C23         6.9849   -2.0376   -6.5509 C.3       1 MOL     0.0009
     23 C24         7.0554   -0.5140   -6.6699 C.3       1 MOL     0.0115
     24 C25         7.4012   -0.0889   -8.1030 C.3       1 MOL     0.0805
     25 C7          7.1622   -0.3217  -11.0166 C.ar      1 MOL     0.0824
     26 C8          9.6241    0.3731  -12.2640 C.3       1 MOL     0.0553
     27 C9         10.3905    1.3745  -13.0909 C.3       1 MOL    -0.0191
     28 BR1         6.4708    1.5345   -8.6287 Br        1 MOL    -0.0928
     29 H1          5.2456   -0.6949  -14.7543 H         1 MOL     0.2183
@<TRIPOS>BOND
     1   24   23 1 
     2   24   28 1 
     3   18   16 1 
     4   23   22 1 
     5   22   21 1 
     6   21   20 1 
     7   20   17 1 
     8   17   16 1 
     9   16   19 1 
    10   16    5 1 
    11    4    5 ar
    12    4    1 ar
    13    5    8 ar
    14    2    1 1 
    15    1    6 ar
    16    8   25 ar
    17    6   25 ar
    18    6   12 1 
    19   11   10 1 
    20   11   12 1 
    21   15   10 1 
    22   25    3 1 
    23   10    9 2 
    24   12   26 1 
    25    3    7 1 
    26   26    7 1 
    27   26   27 1 
    28    9   27 1 
    29    7   14 1 
    30    7   13 1 
    31   29    2 1 
@<TRIPOS>SUBSTRUCTURE
1 MOL         1
@<TRIPOS>MOLECULE
query molecule
   29    31     1     0     0
SMALL
NO_CHARGE

@<TRIPOS>ATOM
      1 C1          6.9569   -2.1792   -6.2585 C.ar      1 MOL     0.0780
      2 O1          7.2907   -1.2964   -5.2714 O.3       1 MOL    -0.3605
      3 O2          7.9936   -5.4095   -7.4885 O.3       1 MOL    -0.3392
      4 C2          5.9080   -1.8641   -7.1102 C.ar      1 MOL     0.0376
      5 C3          5.5548   -2.7492   -8.1149 C.ar      1 MOL    -0.0372
      6 C5          7.6641   -3.3914   -6.3960 C.ar      1 MOL     0.0200
      7 C6          8.9356   -5.9228   -6.4874 C.3       1 MOL     0.0764
      8 C4          6.2952   -3.9123   -8.2560 C.ar      1 MOL     0.0379
      9 C10        11.3425   -4.0786   -4.5181 C.2       1 MOL     0.0030
     10 C11        10.9184   -2.8019   -4.8844 C.2       1 MOL    -0.0365
     11 C12         9.7386   -2.6288   -5.6308 C.3       1 MOL    -0.0105
     12 C13         8.7284   -3.8005   -5.5779 C.3       1 MOL     0.0574
     13 C14         9.8036   -7.0051   -7.1310 C.3       1 MOL     0.0431
     14 C15         8.1699   -6.5126   -5.2965 C.3       1 MOL     0.0431
     15 C16        11.6673   -1.6916   -4.5070 C.3       1 MOL     0.0167
     16 C17         4.4939   -2.4762   -8.9859 C.3       1 MOL    -0.0102
     17 C18         4.9016   -1.5516  -10.1375 C.3       1 MOL     0.0110
     18 C19         3.3642   -1.7997   -8.2110 C.3       1 MOL     0.0159
     19 C20         3.9727   -3.7937   -9.5546 C.3       1 MOL     0.0159
     20 C21         6.2164   -0.8322   -9.8277 C.3       1 MOL     0.0009
     21 C22         5.9098    0.5566   -9.2622 C.3       1 MOL     0.0002
     22 C23         7.1970    1.3888   -9.2285 C.3       1 MOL     0.0009
     23 C24         7.4441    2.0002  -10.6090 C.3       1 MOL     0.0115
     24 C25         7.8681    3.4701  -10.4924 C.3       1 MOL     0.0805
     25 C7          7.1636   -4.3603   -7.2850 C.ar      1 MOL     0.0824
     26 C8          9.7397   -4.7751   -6.1486 C.3       1 MOL     0.0553
     27 C9         10.5450   -5.1394   -4.9268 C.3       1 MOL    -0.0191
     28 BR1         9.4474    3.8619  -11.5554 Br        1 MOL    -0.0928
     29 H1          7.9639   -0.6938   -5.5954 H         1 MOL     0.2183
@<TRIPOS>BOND
     1   24   23 1 
     2   24   28 1 
     3   18   16 1 
     4   23   22 1 
     5   22   21 1 
     6   21   20 1 
     7   20   17 1 
     8   17   16 1 
     9   16   19 1 
    10   16    5 1 
    11    4    5 ar
    12    4    1 ar
    13    5    8 ar
    14    2    1 1 
    15    1    6 ar
    16    8   25 ar
    17    6   25 ar
    18    6   12 1 
    19   11   10 1 
    20   11   12 1 
    21   15   10 1 
    22   25    3 1 
    23   10    9 2 
    24   12   26 1 
    25    3    7 1 
    26   26    7 1 
    27   26   27 1 
    28    9   27 1 
    29    7   14 1 
    30    7   13 1 
    31   29    2 1 
@<TRIPOS>SUBSTRUCTURE
1 MOL         1
@<TRIPOS>MOLECULE
query molecule
   29    31     1     0     0
SMALL
NO_CHARGE

@<TRIPOS>ATOM
      1 C1          7.0282   -1.4212  -12.2351 C.ar      1 MOL     0.0780
      2 O1          6.4417   -2.6227  -11.9566 O.3       1 MOL    -0.3605
      3 O2          7.2913    1.8791  -10.7992 O.3       1 MOL    -0.3392
      4 C2          7.7946   -1.3023  -13.3853 C.ar      1 MOL     0.0376
      5 C3          8.3983   -0.0918  -13.6815 C.ar      1 MOL    -0.0372
      6 C5          6.8608   -0.3292  -11.3586 C.ar      1 MOL     0.0200
      7 C6          6.7132    1.7657   -9.4553 C.3       1 MOL     0.0764
      8 C4          8.1807    0.9774  -12.8268 C.ar      1 MOL     0.0379
      9 C10         3.9217   -0.2636   -8.3775 C.2       1 MOL     0.0030
     10 C11         3.7672   -0.9821   -9.5624 C.2       1 MOL    -0.0365
     11 C12         4.7182   -0.8714  -10.5932 C.3       1 MOL    -0.0105
     12 C13         6.1156   -0.3571  -10.1698 C.3       1 MOL     0.0574
     13 C14         6.3092    3.1584   -8.9693 C.3       1 MOL     0.0431
     14 C15         7.7381    1.1570   -8.4902 C.3       1 MOL     0.0431
     15 C16         2.6650   -1.8157   -9.7248 C.3       1 MOL     0.0167
     16 C17         9.1913    0.0661  -14.8238 C.3       1 MOL    -0.0102
     17 C18         8.5144   -0.4721  -16.0885 C.3       1 MOL     0.0110
     18 C19        10.5081   -0.6851  -14.6336 C.3       1 MOL     0.0159
     19 C20         9.5002    1.5501  -15.0072 C.3       1 MOL     0.0159
     20 C21         6.9970   -0.2843  -16.0240 C.3       1 MOL     0.0009
     21 C22         6.3249   -1.2844  -16.9677 C.3       1 MOL     0.0002
     22 C23         6.6796   -0.9347  -18.4176 C.3       1 MOL     0.0009
     23 C24         8.0772   -1.4659  -18.7420 C.3       1 MOL     0.0115
     24 C25         8.2809   -2.8711  -18.1606 C.3       1 MOL     0.0805
     25 C7          7.6412    0.8224  -11.5688 C.ar      1 MOL     0.0824
     26 C8          5.5428    0.9468   -9.6502 C.3       1 MOL     0.0553
     27 C9          5.0459    0.5462   -8.2840 C.3       1 MOL    -0.0191
     28 BR1        10.1559   -3.2593  -17.8268 Br        1 MOL    -0.0928
     29 H1          6.2632   -2.6809  -11.0153 H         1 MOL     0.2183
@<TRIPOS>BOND
     1   24   23 1 
     2   24   28 1 
     3   18   16 1 
     4   23   22 1 
     5   22   21 1 
     6   21   20 1 
     7   20   17 1 
     8   17   16 1 
     9   16   19 1 
    10   16    5 1 
    11    4    5 ar
    12    4    1 ar
    13    5    8 ar
    14    2    1 1 
    15    1    6 ar
    16    8   25 ar
    17    6   25 ar
    18    6   12 1 
    19   11   10 1 
    20   11   12 1 
    21   15   10 1 
    22   25    3 1 
    23   10    9 2 
    24   12   26 1 
    25    3    7 1 
    26   26    7 1 
    27   26   27 1 
    28    9   27 1 
    29    7   14 1 
    30    7   13 1 
    31   29    2 1 
@<TRIPOS>SUBSTRUCTURE
1 MOL         1
@<TRIPOS>MOLECULE
query molecule
   29    31     1     0     0
SMALL
NO_CHARGE

@<TRIPOS>ATOM
      1 C1          7.9934    0.6042  -10.7492 C.ar      1 MOL     0.0780
      2 O1          6.8934    0.4197   -9.9610 O.3       1 MOL    -0.3605
      3 O2         10.9735    2.6375  -10.8337 O.3       1 MOL    -0.3392
      4 C2          8.1363   -0.1727  -11.8897 C.ar      1 MOL     0.0376
      5 C3          9.2468   -0.0002  -12.6987 C.ar      1 MOL    -0.0372
      6 C5          8.9665    1.5621  -10.3972 C.ar      1 MOL     0.0200
      7 C6         11.0213    3.3119   -9.5314 C.3       1 MOL     0.0764
      8 C4         10.1650    0.9790  -12.3539 C.ar      1 MOL     0.0379
      9 C10         8.2658    4.5393   -7.5380 C.2       1 MOL     0.0030
     10 C11         7.2418    3.9852   -8.3052 C.2       1 MOL    -0.0365
     11 C12         7.5366    3.0849   -9.3452 C.3       1 MOL    -0.0105
     12 C13         8.9141    2.3839   -9.2609 C.3       1 MOL     0.0574
     13 C14        11.9161    4.5470   -9.6441 C.3       1 MOL     0.0431
     14 C15        11.5813    2.3616   -8.4658 C.3       1 MOL     0.0431
     15 C16         5.9191    4.3247   -8.0382 C.3       1 MOL     0.0167
     16 C17         9.4362   -0.7734  -13.8498 C.3       1 MOL    -0.0102
     17 C18         8.8612   -0.1094  -15.1051 C.3       1 MOL     0.0110
     18 C19         8.7479   -2.1255  -13.6702 C.3       1 MOL     0.0159
     19 C20        10.9320   -1.0109  -14.0425 C.3       1 MOL     0.0159
     20 C21         7.4692    0.4665  -14.8357 C.3       1 MOL     0.0009
     21 C22         6.4787   -0.6827  -14.6339 C.3       1 MOL     0.0002
     22 C23         5.7458   -0.9613  -15.9513 C.3       1 MOL     0.0009
     23 C24         6.6768   -1.7165  -16.9018 C.3       1 MOL     0.0115
     24 C25         7.1548   -0.8078  -18.0419 C.3       1 MOL     0.0805
     25 C7         10.1767    1.5804  -11.1146 C.ar      1 MOL     0.0824
     26 C8          9.6547    3.7063   -9.2958 C.3       1 MOL     0.0553
     27 C9          9.5608    4.1539   -7.8589 C.3       1 MOL    -0.0191
     28 BR1         8.5383   -1.6497  -19.1166 Br        1 MOL    -0.0928
     29 H1          6.1280    0.2504  -10.5147 H         1 MOL     0.2183
@<TRIPOS>BOND
     1   24   23 1 
     2   24   28 1 
     3   18   16 1 
     4   23   22 1 
     5   22   21 1 
     6   21   20 1 
     7   20   17 1 
     8   17   16 1 
     9   16   19 1 
    10   16    5 1 
    11    4    5 ar
    12    4    1 ar
    13    5    8 ar
    14    2    1 1 
    15    1    6 ar
    16    8   25 ar
    17    6   25 ar
    18    6   12 1 
    19   11   10 1 
    20   11   12 1 
    21   15   10 1 
    22   25    3 1 
    23   10    9 2 
    24   12   26 1 
    25    3    7 1 
    26   26    7 1 
    27   26   27 1 
    28    9   27 1 
    29    7   14 1 
    30    7   13 1 
    31   29    2 1 
@<TRIPOS>SUBSTRUCTURE
1 MOL         1
@<TRIPOS>MOLECULE
query molecule
   29    31     1     0     0
SMALL
NO_CHARGE

@<TRIPOS>ATOM
      1 C1          8.6708   -1.1919  -12.7347 C.ar      1 MOL     0.0780
      2 O1          9.9678   -1.5457  -12.4945 O.3       1 MOL    -0.3605
      3 O2          6.4953   -0.5604  -15.5437 O.3       1 MOL    -0.3392
      4 C2          7.8205   -0.9972  -11.6559 C.ar      1 MOL     0.0376
      5 C3          6.5017   -0.6405  -11.8817 C.ar      1 MOL    -0.0372
      6 C5          8.2100   -1.0393  -14.0586 C.ar      1 MOL     0.0200
      7 C6          7.2528   -0.9869  -16.7259 C.3       1 MOL     0.0764
      8 C4          6.0866   -0.4533  -13.1907 C.ar      1 MOL     0.0379
      9 C10        10.8086   -0.7261  -17.3264 C.2       1 MOL     0.0030
     10 C11        11.1665   -0.3081  -16.0453 C.2       1 MOL    -0.0365
     11 C12        10.2200   -0.3076  -15.0045 C.3       1 MOL    -0.0105
     12 C13         8.9904   -1.2253  -15.2099 C.3       1 MOL     0.0574
     13 C14         6.6638   -0.3098  -17.9642 C.3       1 MOL     0.0431
     14 C15         7.1737   -2.5107  -16.8813 C.3       1 MOL     0.0431
     15 C16        12.4699    0.1099  -15.7951 C.3       1 MOL     0.0167
     16 C17         5.6076   -0.4489  -10.8221 C.3       1 MOL    -0.0102
     17 C18         5.1696    1.0123  -10.6794 C.3       1 MOL     0.0110
     18 C19         6.2736   -0.8749   -9.5147 C.3       1 MOL     0.0159
     19 C20         4.3789   -1.3259  -11.0503 C.3       1 MOL     0.0159
     20 C21         6.3480    1.9049  -10.2835 C.3       1 MOL     0.0009
     21 C22         5.9186    3.3717  -10.3644 C.3       1 MOL     0.0002
     22 C23         7.1393    4.2730  -10.1456 C.3       1 MOL     0.0009
     23 C24         8.1865    3.9819  -11.2222 C.3       1 MOL     0.0115
     24 C25         9.3136    3.0995  -10.6698 C.3       1 MOL     0.0805
     25 C7          6.8286   -0.8775  -14.2712 C.ar      1 MOL     0.0824
     26 C8          8.5861   -0.4980  -16.4772 C.3       1 MOL     0.0553
     27 C9          9.4922   -1.1317  -17.5025 C.3       1 MOL    -0.0191
     28 BR1        10.0431    1.9121  -12.0247 Br        1 MOL    -0.0928
     29 H1         10.1292   -2.4253  -12.8430 H         1 MOL     0.2183
@<TRIPOS>BOND
     1   24   23 1 
     2   24   28 1 
     3   18   16 1 
     4   23   22 1 
     5   22   21 1 
     6   21   20 1 
     7   20   17 1 
     8   17   16 1 
     9   16   19 1 
    10   16    5 1 
    11    4    5 ar
    12    4    1 ar
    13    5    8 ar
    14    2    1 1 
    15    1    6 ar
    16    8   25 ar
    17    6   25 ar
    18    6   12 1 
    19   11   10 1 
    20   11   12 1 
    21   15   10 1 
    22   25    3 1 
    23   10    9 2 
    24   12   26 1 
    25    3    7 1 
    26   26    7 1 
    27   26   27 1 
    28    9   27 1 
    29    7   14 1 
    30    7   13 1 
    31   29    2 1 
@<TRIPOS>SUBSTRUCTURE
1 MOL         1
@<TRIPOS>MOLECULE
query molecule
   29    31     1     0     0
SMALL
NO_CHARGE

@<TRIPOS>ATOM
      1 C1          5.1351   -1.2354   -8.1289 C.ar      1 MOL     0.0780
      2 O1          3.8813   -1.3266   -7.5953 O.3       1 MOL    -0.3605
      3 O2          8.4041   -2.6928   -7.6679 O.3       1 MOL    -0.3392
      4 C2          5.3502   -0.3613   -9.1845 C.ar      1 MOL     0.0376
      5 C3          6.6149   -0.2582   -9.7389 C.ar      1 MOL    -0.0372
      6 C5          6.1841   -2.0266   -7.6167 C.ar      1 MOL     0.0200
      7 C6          8.2049   -3.8074   -6.7346 C.3       1 MOL     0.0764
      8 C4          7.6376   -1.0138   -9.1873 C.ar      1 MOL     0.0379
      9 C10         5.9191   -4.0131   -3.9408 C.2       1 MOL     0.0030
     10 C11         5.2238   -2.8335   -4.2036 C.2       1 MOL    -0.0365
     11 C12         5.4428   -2.1277   -5.4007 C.3       1 MOL    -0.0105
     12 C13         6.0603   -2.9440   -6.5621 C.3       1 MOL     0.0574
     13 C14         9.5445   -4.1565   -6.0846 C.3       1 MOL     0.0431
     14 C15         7.6573   -5.0295   -7.4821 C.3       1 MOL     0.0431
     15 C16         4.3056   -2.3526   -3.2753 C.3       1 MOL     0.0167
     16 C17         6.8709    0.6004  -10.8140 C.3       1 MOL    -0.0102
     17 C18         6.7884   -0.1119  -12.1679 C.3       1 MOL     0.0110
     18 C19         8.2745    1.1866  -10.6705 C.3       1 MOL     0.0159
     19 C20         5.8604    1.7446  -10.7814 C.3       1 MOL     0.0159
     20 C21         7.6708    0.5800  -13.2095 C.3       1 MOL     0.0009
     21 C22         7.1288    1.9864  -13.4750 C.3       1 MOL     0.0002
     22 C23         8.2547    2.8719  -14.0217 C.3       1 MOL     0.0009
     23 C24         9.3302    3.0486  -12.9481 C.3       1 MOL     0.0115
     24 C25         8.9024    4.0908  -11.9064 C.3       1 MOL     0.0805
     25 C7          7.4026   -2.0575   -8.3195 C.ar      1 MOL     0.0824
     26 C8          7.2965   -3.2754   -5.7494 C.3       1 MOL     0.0553
     27 C9          6.8174   -4.4346   -4.9123 C.3       1 MOL    -0.0191
     28 BR1        10.1814    4.2365  -10.4503 Br        1 MOL    -0.0928
     29 H1          3.3353   -1.8834   -8.1549 H         1 MOL     0.2183
@<TRIPOS>BOND
     1   24   23 1 
     2   24   28 1 
     3   18   16 1 
     4   23   22 1 
     5   22   21 1 
     6   21   20 1 
     7   20   17 1 
     8   17   16 1 
     9   16   19 1 
    10   16    5 1 
    11    4    5 ar
    12    4    1 ar
    13    5    8 ar
    14    2    1 1 
    15    1    6 ar
    16    8   25 ar
    17    6   25 ar
    18    6   12 1 
    19   11   10 1 
    20   11   12 1 
    21   15   10 1 
    22   25    3 1 
    23   10    9 2 
    24   12   26 1 
    25    3    7 1 
    26   26    7 1 
    27   26   27 1 
    28    9   27 1 
    29    7   14 1 
    30    7   13 1 
    31   29    2 1 
@<TRIPOS>SUBSTRUCTURE
1 MOL         1
@<TRIPOS>MOLECULE
query molecule
   29    31     1     0     0
SMALL
NO_CHARGE

@<TRIPOS>ATOM
      1 C1          6.5769    0.9873  -10.5543 C.ar      1 MOL     0.0780
      2 O1          5.6654    1.0952   -9.5431 O.3       1 MOL    -0.3605
      3 O2          9.9503    2.0275  -11.3030 O.3       1 MOL    -0.3392
      4 C2          6.2302    0.2752  -11.6934 C.ar      1 MOL     0.0376
      5 C3          7.1434    0.1539  -12.7272 C.ar      1 MOL    -0.0372
      6 C5          7.8489    1.5833  -10.4304 C.ar      1 MOL     0.0200
      7 C6         10.4764    2.5746  -10.0472 C.3       1 MOL     0.0764
      8 C4          8.3695    0.7871  -12.5984 C.ar      1 MOL     0.0379
      9 C10         8.7173    4.4513   -7.5064 C.2       1 MOL     0.0030
     10 C11         7.4351    4.2804   -8.0269 C.2       1 MOL    -0.0365
     11 C12         7.2124    3.3989   -9.1004 C.3       1 MOL    -0.0105
     12 C13         8.2925    2.3110   -9.3155 C.3       1 MOL     0.0574
     13 C14        11.6632    3.4865  -10.3613 C.3       1 MOL     0.0431
     14 C15        10.9276    1.4359   -9.1242 C.3       1 MOL     0.0431
     15 C16         6.3685    4.9861   -7.4787 C.3       1 MOL     0.0167
     16 C17         6.8388   -0.5680  -13.8868 C.3       1 MOL    -0.0102
     17 C18         7.7948   -1.7430  -14.1161 C.3       1 MOL     0.0110
     18 C19         6.9269    0.3593  -15.0979 C.3       1 MOL     0.0159
     19 C20         5.4089   -1.0923  -13.7788 C.3       1 MOL     0.0159
     20 C21         9.2504   -1.3175  -13.9105 C.3       1 MOL     0.0009
     21 C22         9.5659   -0.1379  -14.8332 C.3       1 MOL     0.0002
     22 C23        10.7446   -0.5032  -15.7428 C.3       1 MOL     0.0009
     23 C24        10.2827   -1.5155  -16.7928 C.3       1 MOL     0.0115
     24 C25         9.2444   -0.8949  -17.7367 C.3       1 MOL     0.0805
     25 C7          8.8264    1.2796  -11.3957 C.ar      1 MOL     0.0824
     26 C8          9.3794    3.3478   -9.5204 C.3       1 MOL     0.0553
     27 C9          9.7326    3.7135   -8.1008 C.3       1 MOL    -0.0191
     28 BR1         7.5372   -1.8204  -17.6556 Br        1 MOL    -0.0928
     29 H1          5.9587    0.5757   -8.7912 H         1 MOL     0.2183
@<TRIPOS>BOND
     1   24   23 1 
     2   24   28 1 
     3   18   16 1 
     4   23   22 1 
     5   22   21 1 
     6   21   20 1 
     7   20   17 1 
     8   17   16 1 
     9   16   19 1 
    10   16    5 1 
    11    4    5 ar
    12    4    1 ar
    13    5    8 ar
    14    2    1 1 
    15    1    6 ar
    16    8   25 ar
    17    6   25 ar
    18    6   12 1 
    19   11   10 1 
    20   11   12 1 
    21   15   10 1 
    22   25    3 1 
    23   10    9 2 
    24   12   26 1 
    25    3    7 1 
    26   26    7 1 
    27   26   27 1 
    28    9   27 1 
    29    7   14 1 
    30    7   13 1 
    31   29    2 1 
@<TRIPOS>SUBSTRUCTURE
1 MOL         1
@<TRIPOS>MOLECULE
query molecule
   29    31     1     0     0
SMALL
NO_CHARGE

@<TRIPOS>ATOM
      1 C1         10.1086    0.0480  -14.5006 C.ar      1 MOL     0.0780
      2 O1         10.9423    1.0925  -14.2197 O.3       1 MOL    -0.3605
      3 O2          7.2000   -1.5674  -13.1029 O.3       1 MOL    -0.3392
      4 C2         10.3300   -0.6929  -15.6524 C.ar      1 MOL     0.0376
      5 C3          9.4926   -1.7537  -15.9535 C.ar      1 MOL    -0.0372
      6 C5          9.0381   -0.2587  -13.6352 C.ar      1 MOL     0.0200
      7 C6          6.7537   -0.6906  -12.0142 C.3       1 MOL     0.0764
      8 C4          8.4760   -2.0614  -15.0632 C.ar      1 MOL     0.0379
      9 C10         8.7699    1.2803   -9.7508 C.2       1 MOL     0.0030
     10 C11         9.9921    1.0736  -10.3891 C.2       1 MOL    -0.0365
     11 C12        10.0443    0.4322  -11.6401 C.3       1 MOL    -0.0105
     12 C13         8.7295    0.4383  -12.4570 C.3       1 MOL     0.0574
     13 C14         5.8806   -1.4979  -11.0524 C.3       1 MOL     0.0431
     14 C15         5.9494    0.4860  -12.5809 C.3       1 MOL     0.0431
     15 C16        11.1680    1.5067   -9.7842 C.3       1 MOL     0.0167
     16 C17         9.6725   -2.5171  -17.1127 C.3       1 MOL    -0.0102
     17 C18         9.9839   -1.6562  -18.3412 C.3       1 MOL     0.0110
     18 C19         8.3984   -3.3102  -17.3991 C.3       1 MOL     0.0159
     19 C20        10.8164   -3.5015  -16.8811 C.3       1 MOL     0.0159
     20 C21         9.0130   -0.4782  -18.4492 C.3       1 MOL     0.0009
     21 C22         7.5781   -1.0093  -18.4856 C.3       1 MOL     0.0002
     22 C23         6.6020    0.1667  -18.6061 C.3       1 MOL     0.0009
     23 C24         5.9229    0.4049  -17.2560 C.3       1 MOL     0.0115
     24 C25         6.2347   -0.7324  -16.2745 C.3       1 MOL     0.0805
     25 C7          8.0851   -1.2029  -14.0593 C.ar      1 MOL     0.0824
     26 C8          7.9783   -0.2959  -11.3638 C.3       1 MOL     0.0553
     27 C9          7.6379    0.8243  -10.4135 C.3       1 MOL    -0.0191
     28 BR1         4.7939   -1.0145  -15.0009 Br        1 MOL    -0.0928
     29 H1         11.7422    0.7609  -13.8057 H         1 MOL     0.2183
@<TRIPOS>BOND
     1   24   23 1 
     2   24   28 1 
     3   18   16 1 
     4   23   22 1 
     5   22   21 1 
     6   21   20 1 
     7   20   17 1 
     8   17   16 1 
     9   16   19 1 
    10   16    5 1 
    11    4    5 ar
    12    4    1 ar
    13    5    8 ar
    14    2    1 1 
    15    1    6 ar
    16    8   25 ar
    17    6   25 ar
    18    6   12 1 
    19   11   10 1 
    20   11   12 1 
    21   15   10 1 
    22   25    3 1 
    23   10    9 2 
    24   12   26 1 
    25    3    7 1 
    26   26    7 1 
    27   26   27 1 
    28    9   27 1 
    29    7   14 1 
    30    7   13 1 
    31   29    2 1 
@<TRIPOS>SUBSTRUCTURE
1 MOL         1
@<TRIPOS>MOLECULE
query molecule
   29    31     1     0     0
SMALL
NO_CHARGE

@<TRIPOS>ATOM
      1 C1          6.7020   -5.3706   -7.5074 C.ar      1 MOL     0.0780
      2 O1          6.4476   -6.6716   -7.8356 O.3       1 MOL    -0.3605
      3 O2          9.4412   -3.3492   -6.3102 O.3       1 MOL    -0.3392
      4 C2          5.6852   -4.4364   -7.6415 C.ar      1 MOL     0.0376
      5 C3          5.9268   -3.1125   -7.3154 C.ar      1 MOL    -0.0372
      6 C5          7.9809   -4.9905   -7.0508 C.ar      1 MOL     0.0200
      7 C6         10.6232   -4.2158   -6.3790 C.3       1 MOL     0.0764
      8 C4          7.1788   -2.7743   -6.8266 C.ar      1 MOL     0.0379
      9 C10        10.8351   -7.7737   -5.7713 C.2       1 MOL     0.0030
     10 C11         9.4646   -8.0104   -5.6718 C.2       1 MOL    -0.0365
     11 C12         8.5408   -6.9981   -5.9894 C.3       1 MOL    -0.0105
     12 C13         9.0716   -5.8595   -6.8939 C.3       1 MOL     0.0574
     13 C14        11.7002   -3.6621   -5.4450 C.3       1 MOL     0.0431
     14 C15        11.1582   -4.2648   -7.8155 C.3       1 MOL     0.0431
     15 C16         9.0085   -9.2578   -5.2570 C.3       1 MOL     0.0167
     16 C17         4.9330   -2.1364   -7.4501 C.3       1 MOL    -0.0102
     17 C18         4.0381   -2.0334   -6.2108 C.3       1 MOL     0.0110
     18 C19         4.0479   -2.4773   -8.6480 C.3       1 MOL     0.0159
     19 C20         5.5999   -0.7872   -7.7066 C.3       1 MOL     0.0159
     20 C21         3.1747   -3.2865   -6.0487 C.3       1 MOL     0.0009
     21 C22         2.2355   -3.4104   -7.2507 C.3       1 MOL     0.0002
     22 C23         0.8039   -3.6488   -6.7567 C.3       1 MOL     0.0009
     23 C24         0.1663   -2.3104   -6.3787 C.3       1 MOL     0.0115
     24 C25        -1.0185   -2.5145   -5.4255 C.3       1 MOL     0.0805
     25 C7          8.2635   -3.6184   -6.9199 C.ar      1 MOL     0.0824
     26 C8         10.1483   -5.4876   -5.8935 C.3       1 MOL     0.0553
     27 C9         11.2179   -6.5074   -6.1937 C.3       1 MOL    -0.0191
     28 BR1        -2.6694   -2.8882   -6.3808 Br        1 MOL    -0.0928
     29 H1          6.8161   -6.8610   -8.7014 H         1 MOL     0.2183
@<TRIPOS>BOND
     1   24   23 1 
     2   24   28 1 
     3   18   16 1 
     4   23   22 1 
     5   22   21 1 
     6   21   20 1 
     7   20   17 1 
     8   17   16 1 
     9   16   19 1 
    10   16    5 1 
    11    4    5 ar
    12    4    1 ar
    13    5    8 ar
    14    2    1 1 
    15    1    6 ar
    16    8   25 ar
    17    6   25 ar
    18    6   12 1 
    19   11   10 1 
    20   11   12 1 
    21   15   10 1 
    22   25    3 1 
    23   10    9 2 
    24   12   26 1 
    25    3    7 1 
    26   26    7 1 
    27   26   27 1 
    28    9   27 1 
    29    7   14 1 
    30    7   13 1 
    31   29    2 1 
@<TRIPOS>SUBSTRUCTURE
1 MOL         1
@<TRIPOS>MOLECULE
query molecule
   29    31     1     0     0
SMALL
NO_CHARGE

@<TRIPOS>ATOM
      1 C1          8.3074    2.1926  -13.6148 C.ar      1 MOL     0.0780
      2 O1          7.1257    2.4328  -14.2558 O.3       1 MOL    -0.3605
      3 O2         11.2002    0.0605  -13.9438 O.3       1 MOL    -0.3392
      4 C2          8.6182    2.9360  -12.4854 C.ar      1 MOL     0.0376
      5 C3          9.8135    2.7070  -11.8248 C.ar      1 MOL    -0.0372
      6 C5          9.1945    1.2120  -14.1048 C.ar      1 MOL     0.0200
      7 C6         11.0621   -0.5827  -15.2554 C.3       1 MOL     0.0764
      8 C4         10.6463    1.7068  -12.3012 C.ar      1 MOL     0.0379
      9 C10         8.0388   -1.6688  -16.9144 C.2       1 MOL     0.0030
     10 C11         7.1382   -1.1004  -16.0145 C.2       1 MOL    -0.0365
     11 C12         7.5916   -0.2362  -15.0012 C.3       1 MOL    -0.0105
     12 C13         8.9723    0.4208  -15.2422 C.3       1 MOL     0.0574
     13 C14        11.9191   -1.8492  -15.2803 C.3       1 MOL     0.0431
     14 C15        11.5196    0.3746  -16.3629 C.3       1 MOL     0.0431
     15 C16         5.7813   -1.3892  -16.1214 C.3       1 MOL     0.0167
     16 C17        10.1716    3.4448  -10.6907 C.3       1 MOL    -0.0102
     17 C18         9.9557    2.6650   -9.3897 C.3       1 MOL     0.0110
     18 C19         9.3279    4.7170  -10.6275 C.3       1 MOL     0.0159
     19 C20        11.6415    3.8412  -10.8054 C.3       1 MOL     0.0159
     20 C21         8.5453    2.8901   -8.8397 C.3       1 MOL     0.0009
     21 C22         7.5234    2.3113   -9.8210 C.3       1 MOL     0.0002
     22 C23         7.5088    0.7831   -9.6996 C.3       1 MOL     0.0009
     23 C24         6.0617    0.2921   -9.6252 C.3       1 MOL     0.0115
     24 C25         5.8087   -0.8317  -10.6386 C.3       1 MOL     0.0805
     25 C7         10.4828    1.1360  -13.5443 C.ar      1 MOL     0.0824
     26 C8          9.6636   -0.9258  -15.3268 C.3       1 MOL     0.0553
     27 C9          9.3765   -1.3345  -16.7496 C.3       1 MOL    -0.0191
     28 BR1         4.6527   -2.2185   -9.9188 Br        1 MOL    -0.0928
     29 H1          6.9100    3.3658  -14.1901 H         1 MOL     0.2183
@<TRIPOS>BOND
     1   24   23 1 
     2   24   28 1 
     3   18   16 1 
     4   23   22 1 
     5   22   21 1 
     6   21   20 1 
     7   20   17 1 
     8   17   16 1 
     9   16   19 1 
    10   16    5 1 
    11    4    5 ar
    12    4    1 ar
    13    5    8 ar
    14    2    1 1 
    15    1    6 ar
    16    8   25 ar
    17    6   25 ar
    18    6   12 1 
    19   11   10 1 
    20   11   12 1 
    21   15   10 1 
    22   25    3 1 
    23   10    9 2 
    24   12   26 1 
    25    3    7 1 
    26   26    7 1 
    27   26   27 1 
    28    9   27 1 
    29    7   14 1 
    30    7   13 1 
    31   29    2 1 
@<TRIPOS>SUBSTRUCTURE
1 MOL         1
@<TRIPOS>MOLECULE
query molecule
   29    31     1     0     0
SMALL
NO_CHARGE

@<TRIPOS>ATOM
      1 C1          5.7208   -1.3147  -11.4589 C.ar      1 MOL     0.0780
      2 O1          4.4959   -1.7439  -11.8837 O.3       1 MOL    -0.3605
      3 O2          7.5053   -0.8035   -8.3643 O.3       1 MOL    -0.3392
      4 C2          6.6643   -0.9437  -12.4059 C.ar      1 MOL     0.0376
      5 C3          7.9121   -0.5084  -11.9926 C.ar      1 MOL    -0.0372
      6 C5          6.0164   -1.2624  -10.0810 C.ar      1 MOL     0.0200
      7 C6          6.6633   -1.4076   -7.3254 C.3       1 MOL     0.0764
      8 C4          8.1609   -0.4239  -10.6317 C.ar      1 MOL     0.0379
      9 C10         3.0539   -1.4929   -7.1315 C.2       1 MOL     0.0030
     10 C11         2.8038   -0.9756   -8.4019 C.2       1 MOL    -0.0365
     11 C12         3.8558   -0.7933   -9.3179 C.3       1 MOL    -0.0105
     12 C13         5.1332   -1.6267   -9.0532 C.3       1 MOL     0.0574
     13 C14         7.0476   -0.8162   -5.9684 C.3       1 MOL     0.0431
     14 C15         6.8626   -2.9281   -7.3033 C.3       1 MOL     0.0431
     15 C16         1.5036   -0.6390   -8.7658 C.3       1 MOL     0.0167
     16 C17         8.8970   -0.1389  -12.9157 C.3       1 MOL    -0.0102
     17 C18         8.3666    0.8142  -13.9915 C.3       1 MOL     0.0110
     18 C19         9.4332   -1.3891  -13.6113 C.3       1 MOL     0.0159
     19 C20        10.0463    0.5318  -12.1671 C.3       1 MOL     0.0159
     20 C21         6.8364    0.8415  -13.9979 C.3       1 MOL     0.0009
     21 C22         6.3137   -0.3766  -14.7630 C.3       1 MOL     0.0002
     22 C23         6.2938   -0.0657  -16.2641 C.3       1 MOL     0.0009
     23 C24         6.8909   -1.2440  -17.0359 C.3       1 MOL     0.0115
     24 C25         8.4231   -1.2352  -16.9556 C.3       1 MOL     0.0805
     25 C7          7.3453   -1.0141   -9.6913 C.ar      1 MOL     0.0824
     26 C8          5.3269   -1.0032   -7.6849 C.3       1 MOL     0.0553
     27 C9          4.3740   -1.8085   -6.8379 C.3       1 MOL    -0.0191
     28 BR1         9.2002   -2.8820  -17.6351 Br        1 MOL    -0.0928
     29 H1          4.5147   -2.6959  -12.0043 H         1 MOL     0.2183
@<TRIPOS>BOND
     1   24   23 1 
     2   24   28 1 
     3   18   16 1 
     4   23   22 1 
     5   22   21 1 
     6   21   20 1 
     7   20   17 1 
     8   17   16 1 
     9   16   19 1 
    10   16    5 1 
    11    4    5 ar
    12    4    1 ar
    13    5    8 ar
    14    2    1 1 
    15    1    6 ar
    16    8   25 ar
    17    6   25 ar
    18    6   12 1 
    19   11   10 1 
    20   11   12 1 
    21   15   10 1 
    22   25    3 1 
    23   10    9 2 
    24   12   26 1 
    25    3    7 1 
    26   26    7 1 
    27   26   27 1 
    28    9   27 1 
    29    7   14 1 
    30    7   13 1 
    31   29    2 1 
@<TRIPOS>SUBSTRUCTURE
1 MOL         1
@<TRIPOS>MOLECULE
query molecule
   29    31     1     0     0
SMALL
NO_CHARGE

@<TRIPOS>ATOM
      1 C1          8.7842    1.4196  -14.5119 C.ar      1 MOL     0.0780
      2 O1          8.7572    2.7812  -14.6133 O.3       1 MOL    -0.3605
      3 O2          7.4744   -1.1792  -12.3780 O.3       1 MOL    -0.3392
      4 C2          9.4835    0.6922  -15.4640 C.ar      1 MOL     0.0376
      5 C3          9.5191   -0.6893  -15.3774 C.ar      1 MOL    -0.0372
      6 C5          8.1022    0.7721  -13.4610 C.ar      1 MOL     0.0200
      7 C6          6.5185   -0.5082  -11.4898 C.3       1 MOL     0.0764
      8 C4          8.8781   -1.2974  -14.3096 C.ar      1 MOL     0.0379
      9 C10         6.7189    2.8143  -10.0779 C.2       1 MOL     0.0030
     10 C11         7.8299    3.2404  -10.8046 C.2       1 MOL    -0.0365
     11 C12         8.3407    2.4543  -11.8535 C.3       1 MOL    -0.0105
     12 C13         7.3615    1.4206  -12.4610 C.3       1 MOL     0.0574
     13 C14         6.2998   -1.3756  -10.2493 C.3       1 MOL     0.0431
     14 C15         5.1842   -0.2955  -12.2154 C.3       1 MOL     0.0431
     15 C16         8.4360    4.4528  -10.4904 C.3       1 MOL     0.0167
     16 C17        10.2008   -1.4610  -16.3254 C.3       1 MOL    -0.0102
     17 C18        10.3877   -0.7265  -17.6568 C.3       1 MOL     0.0110
     18 C19         9.4134   -2.7420  -16.5960 C.3       1 MOL     0.0159
     19 C20        11.5674   -1.8404  -15.7602 C.3       1 MOL     0.0159
     20 C21         9.1328    0.0659  -18.0302 C.3       1 MOL     0.0009
     21 C22         8.1254   -0.8717  -18.6999 C.3       1 MOL     0.0002
     22 C23         6.7447   -0.6753  -18.0631 C.3       1 MOL     0.0009
     23 C24         6.8270   -0.9783  -16.5657 C.3       1 MOL     0.0115
     24 C25         6.0625    0.0714  -15.7486 C.3       1 MOL     0.0805
     25 C7          7.9812   -0.6289  -13.5056 C.ar      1 MOL     0.0824
     26 C8          7.1842    0.7187  -11.1290 C.3       1 MOL     0.0553
     27 C9          6.1643    1.5961  -10.4479 C.3       1 MOL    -0.0191
     28 BR1         4.4131   -0.6396  -15.0059 Br        1 MOL    -0.0928
     29 H1          8.9188    3.0374  -15.5240 H         1 MOL     0.2183
@<TRIPOS>BOND
     1   24   23 1 
     2   24   28 1 
     3   18   16 1 
     4   23   22 1 
     5   22   21 1 
     6   21   20 1 
     7   20   17 1 
     8   17   16 1 
     9   16   19 1 
    10   16    5 1 
    11    4    5 ar
    12    4    1 ar
    13    5    8 ar
    14    2    1 1 
    15    1    6 ar
    16    8   25 ar
    17    6   25 ar
    18    6   12 1 
    19   11   10 1 
    20   11   12 1 
    21   15   10 1 
    22   25    3 1 
    23   10    9 2 
    24   12   26 1 
    25    3    7 1 
    26   26    7 1 
    27   26   27 1 
    28    9   27 1 
    29    7   14 1 
    30    7   13 1 
    31   29    2 1 
@<TRIPOS>SUBSTRUCTURE
1 MOL         1
@<TRIPOS>MOLECULE
query molecule
   29    31     1     0     0
SMALL
NO_CHARGE

@<TRIPOS>ATOM
      1 C1          8.9091    0.2371  -15.5011 C.ar      1 MOL     0.0780
      2 O1          9.4505    1.2733  -16.2069 O.3       1 MOL    -0.3605
      3 O2          8.0513   -3.2345  -15.9856 O.3       1 MOL    -0.3392
      4 C2          8.5459    0.4469  -14.1787 C.ar      1 MOL     0.0376
      5 C3          7.9977   -0.5937  -13.4478 C.ar      1 MOL    -0.0372
      6 C5          8.7354   -1.0228  -16.1101 C.ar      1 MOL     0.0200
      7 C6          8.6328   -3.6015  -17.2819 C.3       1 MOL     0.0764
      8 C4          7.7964   -1.8085  -14.0838 C.ar      1 MOL     0.0379
      9 C10         8.9479   -1.5693  -20.2557 C.2       1 MOL     0.0030
     10 C11         8.5439   -0.3648  -19.6813 C.2       1 MOL    -0.0365
     11 C12         8.3588   -0.2642  -18.2903 C.3       1 MOL    -0.0105
     12 C13         9.0819   -1.3323  -17.4343 C.3       1 MOL     0.0574
     13 C14         7.9182   -4.8451  -17.8126 C.3       1 MOL     0.0431
     14 C15        10.1305   -3.8918  -17.1246 C.3       1 MOL     0.0431
     15 C16         8.3240    0.7456  -20.4904 C.3       1 MOL     0.0167
     16 C17         7.6314   -0.4280  -12.1072 C.3       1 MOL    -0.0102
     17 C18         8.8388   -0.4217  -11.1643 C.3       1 MOL     0.0110
     18 C19         6.7087   -1.5720  -11.6897 C.3       1 MOL     0.0159
     19 C20         6.8702    0.8877  -11.9641 C.3       1 MOL     0.0159
     20 C21        10.1149   -0.0162  -11.9054 C.3       1 MOL     0.0009
     21 C22        10.1381    1.5048  -12.0741 C.3       1 MOL     0.0002
     22 C23         9.6141    2.1676  -10.7948 C.3       1 MOL     0.0009
     23 C24        10.7960    2.6085   -9.9292 C.3       1 MOL     0.0115
     24 C25        10.6841    4.0934   -9.5594 C.3       1 MOL     0.0805
     25 C7          8.3695   -2.1127  -15.2990 C.ar      1 MOL     0.0824
     26 C8          8.3475   -2.4658  -18.1229 C.3       1 MOL     0.0553
     27 C9          9.1509   -2.6343  -19.3879 C.3       1 MOL    -0.0191
     28 BR1        11.5247    5.2417  -10.8831 Br        1 MOL    -0.0928
     29 H1          9.2230    2.1033  -15.7820 H         1 MOL     0.2183
@<TRIPOS>BOND
     1   24   23 1 
     2   24   28 1 
     3   18   16 1 
     4   23   22 1 
     5   22   21 1 
     6   21   20 1 
     7   20   17 1 
     8   17   16 1 
     9   16   19 1 
    10   16    5 1 
    11    4    5 ar
    12    4    1 ar
    13    5    8 ar
    14    2    1 1 
    15    1    6 ar
    16    8   25 ar
    17    6   25 ar
    18    6   12 1 
    19   11   10 1 
    20   11   12 1 
    21   15   10 1 
    22   25    3 1 
    23   10    9 2 
    24   12   26 1 
    25    3    7 1 
    26   26    7 1 
    27   26   27 1 
    28    9   27 1 
    29    7   14 1 
    30    7   13 1 
    31   29    2 1 
@<TRIPOS>SUBSTRUCTURE
1 MOL         1
@<TRIPOS>MOLECULE
query molecule
   29    31     1     0     0
SMALL
NO_CHARGE

@<TRIPOS>ATOM
      1 C1          7.8997   -3.2032   -7.4995 C.ar      1 MOL     0.0780
      2 O1          8.7119   -2.9695   -8.5723 O.3       1 MOL    -0.3605
      3 O2          7.9232   -5.0952   -4.4267 O.3       1 MOL    -0.3392
      4 C2          6.6655   -2.5719   -7.4455 C.ar      1 MOL     0.0376
      5 C3          5.8307   -2.7959   -6.3637 C.ar      1 MOL    -0.0372
      6 C5          8.3203   -4.0641   -6.4648 C.ar      1 MOL     0.0200
      7 C6          9.2956   -5.5958   -4.2887 C.3       1 MOL     0.0764
      8 C4          6.2495   -3.6813   -5.3830 C.ar      1 MOL     0.0379
      9 C10        11.5598   -6.6821   -6.8897 C.2       1 MOL     0.0030
     10 C11        10.7808   -6.2765   -7.9727 C.2       1 MOL    -0.0365
     11 C12         9.6233   -5.5034   -7.7691 C.3       1 MOL    -0.0105
     12 C13         9.5515   -4.7363   -6.4264 C.3       1 MOL     0.0574
     13 C14         9.2941   -6.7939   -3.3382 C.3       1 MOL     0.0431
     14 C15        10.2053   -4.4937   -3.7320 C.3       1 MOL     0.0431
     15 C16        11.1529   -6.6381   -9.2638 C.3       1 MOL     0.0167
     16 C17         4.5841   -2.1677   -6.2636 C.3       1 MOL    -0.0102
     17 C18         4.3636   -1.1208   -7.3602 C.3       1 MOL     0.0110
     18 C19         4.4778   -1.4671   -4.9100 C.3       1 MOL     0.0159
     19 C20         3.4899   -3.2290   -6.3492 C.3       1 MOL     0.0159
     20 C21         2.8926   -1.0623   -7.7787 C.3       1 MOL     0.0009
     21 C22         2.5525   -2.3080   -8.6002 C.3       1 MOL     0.0002
     22 C23         2.9223   -2.0670  -10.0684 C.3       1 MOL     0.0009
     23 C24         4.3132   -2.6414  -10.3439 C.3       1 MOL     0.0115
     24 C25         5.3799   -1.5389  -10.3149 C.3       1 MOL     0.0805
     25 C7          7.5521   -4.1192   -5.2873 C.ar      1 MOL     0.0824
     26 C8          9.6456   -6.0179   -5.6221 C.3       1 MOL     0.0553
     27 C9         11.1300   -6.2830   -5.6310 C.3       1 MOL    -0.0191
     28 BR1         5.5476   -0.6388  -12.0293 Br        1 MOL    -0.0928
     29 H1          9.6228   -2.9078   -8.2765 H         1 MOL     0.2183
@<TRIPOS>BOND
     1   24   23 1 
     2   24   28 1 
     3   18   16 1 
     4   23   22 1 
     5   22   21 1 
     6   21   20 1 
     7   20   17 1 
     8   17   16 1 
     9   16   19 1 
    10   16    5 1 
    11    4    5 ar
    12    4    1 ar
    13    5    8 ar
    14    2    1 1 
    15    1    6 ar
    16    8   25 ar
    17    6   25 ar
    18    6   12 1 
    19   11   10 1 
    20   11   12 1 
    21   15   10 1 
    22   25    3 1 
    23   10    9 2 
    24   12   26 1 
    25    3    7 1 
    26   26    7 1 
    27   26   27 1 
    28    9   27 1 
    29    7   14 1 
    30    7   13 1 
    31   29    2 1 
@<TRIPOS>SUBSTRUCTURE
1 MOL         1
@<TRIPOS>MOLECULE
query molecule
   29    31     1     0     0
SMALL
NO_CHARGE

@<TRIPOS>ATOM
      1 C1          7.0471   -0.6812  -12.4192 C.ar      1 MOL     0.0780
      2 O1          6.6449   -1.3130  -11.2772 O.3       1 MOL    -0.3605
      3 O2          8.6949    2.3739  -13.4059 O.3       1 MOL    -0.3392
      4 C2          6.8249   -1.3018  -13.6400 C.ar      1 MOL     0.0376
      5 C3          7.2286   -0.6761  -14.8075 C.ar      1 MOL    -0.0372
      6 C5          7.6852    0.5744  -12.3490 C.ar      1 MOL     0.0200
      7 C6          9.1851    2.9716  -12.1587 C.3       1 MOL     0.0764
      8 C4          7.8125    0.5772  -14.7131 C.ar      1 MOL     0.0379
      9 C10         7.6343    2.9368   -8.8928 C.2       1 MOL     0.0030
     10 C11         6.6092    2.0436   -9.2016 C.2       1 MOL    -0.0365
     11 C12         6.5994    1.3675  -10.4353 C.3       1 MOL    -0.0105
     12 C13         7.9621    1.2722  -11.1635 C.3       1 MOL     0.0574
     13 C14         9.4303    4.4640  -12.3859 C.3       1 MOL     0.0431
     14 C15        10.4900    2.2921  -11.7256 C.3       1 MOL     0.0431
     15 C16         5.5899    1.8188   -8.2816 C.3       1 MOL     0.0167
     16 C17         7.0364   -1.2743  -16.0581 C.3       1 MOL    -0.0102
     17 C18         7.9251   -2.5052  -16.2639 C.3       1 MOL     0.0110
     18 C19         7.3617   -0.2644  -17.1575 C.3       1 MOL     0.0159
     19 C20         5.5705   -1.6806  -16.1892 C.3       1 MOL     0.0159
     20 C21         9.4073   -2.1388  -16.1585 C.3       1 MOL     0.0009
     21 C22         9.5733   -0.6364  -16.3988 C.3       1 MOL     0.0002
     22 C23        11.0304   -0.2365  -16.1390 C.3       1 MOL     0.0009
     23 C24        11.2102    0.0966  -14.6567 C.3       1 MOL     0.0115
     24 C25        10.5148   -0.9447  -13.7700 C.3       1 MOL     0.0805
     25 C7          8.2655    1.0957  -13.5199 C.ar      1 MOL     0.0824
     26 C8          8.0969    2.7807  -11.2325 C.3       1 MOL     0.0553
     27 C9          8.6189    3.1100   -9.8567 C.3       1 MOL    -0.0191
     28 BR1        10.8786   -0.6574  -11.8825 Br        1 MOL    -0.0928
     29 H1          7.3688   -1.3262  -10.6471 H         1 MOL     0.2183
@<TRIPOS>BOND
     1   24   23 1 
     2   24   28 1 
     3   18   16 1 
     4   23   22 1 
     5   22   21 1 
     6   21   20 1 
     7   20   17 1 
     8   17   16 1 
     9   16   19 1 
    10   16    5 1 
    11    4    5 ar
    12    4    1 ar
    13    5    8 ar
    14    2    1 1 
    15    1    6 ar
    16    8   25 ar
    17    6   25 ar
    18    6   12 1 
    19   11   10 1 
    20   11   12 1 
    21   15   10 1 
    22   25    3 1 
    23   10    9 2 
    24   12   26 1 
    25    3    7 1 
    26   26    7 1 
    27   26   27 1 
    28    9   27 1 
    29    7   14 1 
    30    7   13 1 
    31   29    2 1 
@<TRIPOS>SUBSTRUCTURE
1 MOL         1
@<TRIPOS>MOLECULE
query molecule
   29    31     1     0     0
SMALL
NO_CHARGE

@<TRIPOS>ATOM
      1 C1          6.3872    1.5899   -9.4117 C.ar      1 MOL     0.0780
      2 O1          6.1022    2.9255   -9.4176 O.3       1 MOL    -0.3605
      3 O2          9.0756   -0.6255  -10.3534 O.3       1 MOL    -0.3392
      4 C2          5.4449    0.7077   -8.9034 C.ar      1 MOL     0.0376
      5 C3          5.7188   -0.6496   -8.8877 C.ar      1 MOL    -0.0372
      6 C5          7.6236    1.1255   -9.9058 C.ar      1 MOL     0.0200
      7 C6         10.2089    0.2510  -10.6705 C.3       1 MOL     0.0764
      8 C4          6.9225   -1.0831   -9.4205 C.ar      1 MOL     0.0379
      9 C10        10.1558    3.5087  -12.2378 C.2       1 MOL     0.0030
     10 C11         8.7722    3.6806  -12.2242 C.2       1 MOL    -0.0365
     11 C12         7.9475    2.7756  -11.5316 C.3       1 MOL    -0.0105
     12 C13         8.6401    1.9404  -10.4275 C.3       1 MOL     0.0574
     13 C14        11.1994   -0.5156  -11.5481 C.3       1 MOL     0.0431
     14 C15        10.9026    0.7036   -9.3797 C.3       1 MOL     0.0431
     15 C16         8.2042    4.7564  -12.8996 C.3       1 MOL     0.0167
     16 C17         4.8016   -1.5715   -8.3705 C.3       1 MOL    -0.0102
     17 C18         4.9433   -1.7555   -6.8561 C.3       1 MOL     0.0110
     18 C19         5.0189   -2.9295   -9.0362 C.3       1 MOL     0.0159
     19 C20         3.3880   -1.0928   -8.6923 C.3       1 MOL     0.0159
     20 C21         4.2177   -3.0174   -6.3838 C.3       1 MOL     0.0009
     21 C22         3.3843   -3.5810   -7.5371 C.3       1 MOL     0.0002
     22 C23         3.4958   -5.1100   -7.5470 C.3       1 MOL     0.0009
     23 C24         2.1561   -5.7208   -7.1310 C.3       1 MOL     0.0115
     24 C25         2.0897   -7.2078   -7.5029 C.3       1 MOL     0.0805
     25 C7          7.9633   -0.2236   -9.6959 C.ar      1 MOL     0.0824
     26 C8          9.6128    1.3304  -11.4175 C.3       1 MOL     0.0553
     27 C9         10.6529    2.4153  -11.5409 C.3       1 MOL    -0.0191
     28 BR1         0.2844   -7.7684   -7.9548 Br        1 MOL    -0.0928
     29 H1          6.3650    3.3124   -8.5794 H         1 MOL     0.2183
@<TRIPOS>BOND
     1   24   23 1 
     2   24   28 1 
     3   18   16 1 
     4   23   22 1 
     5   22   21 1 
     6   21   20 1 
     7   20   17 1 
     8   17   16 1 
     9   16   19 1 
    10   16    5 1 
    11    4    5 ar
    12    4    1 ar
    13    5    8 ar
    14    2    1 1 
    15    1    6 ar
    16    8   25 ar
    17    6   25 ar
    18    6   12 1 
    19   11   10 1 
    20   11   12 1 
    21   15   10 1 
    22   25    3 1 
    23   10    9 2 
    24   12   26 1 
    25    3    7 1 
    26   26    7 1 
    27   26   27 1 
    28    9   27 1 
    29    7   14 1 
    30    7   13 1 
    31   29    2 1 
@<TRIPOS>SUBSTRUCTURE
1 MOL         1
@<TRIPOS>MOLECULE
query molecule
   29    31     1     0     0
SMALL
NO_CHARGE

@<TRIPOS>ATOM
      1 C1          5.2246   -1.2403   -9.7066 C.ar      1 MOL     0.0780
      2 O1          3.9697   -1.2619  -10.2449 O.3       1 MOL    -0.3605
      3 O2          7.0035   -2.6236   -6.8880 O.3       1 MOL    -0.3392
      4 C2          6.2148   -0.5110  -10.3488 C.ar      1 MOL     0.0376
      5 C3          7.4933   -0.4804   -9.8178 C.ar      1 MOL    -0.0372
      6 C5          5.5028   -1.9575   -8.5247 C.ar      1 MOL     0.0200
      7 C6          6.0897   -3.6073   -6.2961 C.3       1 MOL     0.0764
      8 C4          7.7283   -1.1571   -8.6314 C.ar      1 MOL     0.0379
      9 C10         2.4873   -3.4485   -6.0322 C.2       1 MOL     0.0030
     10 C11         2.3094   -2.3135   -6.8223 C.2       1 MOL    -0.0365
     11 C12         3.3883   -1.7696   -7.5429 C.3       1 MOL    -0.0105
     12 C13         4.5720   -2.7298   -7.8130 C.3       1 MOL     0.0574
     13 C14         6.5102   -3.8681   -4.8490 C.3       1 MOL     0.0431
     14 C15         6.1361   -4.9166   -7.0934 C.3       1 MOL     0.0431
     15 C16         1.0550   -1.7163   -6.8991 C.3       1 MOL     0.0167
     16 C17         8.5242    0.2311  -10.4423 C.3       1 MOL    -0.0102
     17 C18         8.6118    1.6830   -9.9610 C.3       1 MOL     0.0110
     18 C19         8.2877    0.2445  -11.9517 C.3       1 MOL     0.0159
     19 C20         9.8486   -0.4755  -10.1638 C.3       1 MOL     0.0159
     20 C21         7.2815    2.1469   -9.3635 C.3       1 MOL     0.0009
     21 C22         6.1596    1.8928  -10.3731 C.3       1 MOL     0.0002
     22 C23         5.6166    3.2339  -10.8801 C.3       1 MOL     0.0009
     23 C24         6.7720    4.2243  -11.0371 C.3       1 MOL     0.0115
     24 C25         7.7679    3.7445  -12.1011 C.3       1 MOL     0.0805
     25 C7          6.8437   -2.0791   -8.1164 C.ar      1 MOL     0.0824
     26 C8          4.8060   -2.9520   -6.3317 C.3       1 MOL     0.0553
     27 C9          3.7647   -3.9925   -6.0046 C.3       1 MOL    -0.0191
     28 BR1         9.6068    4.1418  -11.6133 Br        1 MOL    -0.0928
     29 H1          3.3600   -0.8158   -9.6528 H         1 MOL     0.2183
@<TRIPOS>BOND
     1   24   23 1 
     2   24   28 1 
     3   18   16 1 
     4   23   22 1 
     5   22   21 1 
     6   21   20 1 
     7   20   17 1 
     8   17   16 1 
     9   16   19 1 
    10   16    5 1 
    11    4    5 ar
    12    4    1 ar
    13    5    8 ar
    14    2    1 1 
    15    1    6 ar
    16    8   25 ar
    17    6   25 ar
    18    6   12 1 
    19   11   10 1 
    20   11   12 1 
    21   15   10 1 
    22   25    3 1 
    23   10    9 2 
    24   12   26 1 
    25    3    7 1 
    26   26    7 1 
    27   26   27 1 
    28    9   27 1 
    29    7   14 1 
    30    7   13 1 
    31   29    2 1 
@<TRIPOS>SUBSTRUCTURE
1 MOL         1
