#	Name: NoName
#	Creating user name:	dnduq97
#	Creation time:	16. 10. 2022 00:08

#	Modifying user name:	dnduq97
#	Modification time:	16. 10. 2022 00:08

#	Program:	corina 4.4.0 0026  12.08.2021

@<TRIPOS>MOLECULE
NoName
  30   32    0    0    0
SMALL
NO_CHARGES


@<TRIPOS>ATOM
   1 C1             0.4912     4.3118    -0.3840 C.ar    
   2 O2            -0.4475     3.7476    -1.1886 O.3     
   3 C3             0.4968     5.6841    -0.1859 C.ar    
   4 C4             1.4518     6.2578     0.6311 C.ar    
   5 C5             2.3965     5.4656     1.2516 C.ar    
   6 C6             2.3949     4.0872     1.0601 C.ar    
   7 O7             3.3335     3.3444     1.7024 O.3     
   8 C8             3.5518     1.9977     1.2795 C.3     
   9 C9             4.3845     1.2466     2.3204 C.3     
  10 C10            4.2869     2.0049    -0.0623 C.3     
  11 C11            2.1914     1.3167     1.1185 C.3     
  12 H12            1.6333     1.3772     2.0529 H       
  13 C13            1.4167     2.0272    -0.0006 C.3     
  14 H14            1.8792     1.8037    -0.9619 H       
  15 C15            1.4418     3.5117     0.2367 C.ar    
  16 C16           -0.0183     1.4990     0.0103 C.3     
  17 C17            0.0021    -0.0041     0.0020 C.2     
  18 C18            1.0382    -0.7186     0.3076 C.2     
  19 C19            2.3684    -0.1471     0.7119 C.3     
  20 C20           -1.2628    -0.7251    -0.3869 C.3     
  21 C21            1.4624     7.7496     0.8446 C.3     
  22 C22            0.3203     8.3866     0.0503 C.3     
  23 C23            0.3311     9.9011     0.2670 C.3     
  24 C24           -0.8110    10.5381    -0.5273 C.3     
  25 C25           -0.8003    12.0526    -0.3105 C.3     
  26 C26           -1.9423    12.6896    -1.1048 C.3     
  27 C27           -1.9316    14.2041    -0.8881 C.3     
  28 Br28          -3.3991    15.0226    -1.9087 Br      
  29 C29            1.2797     8.0531     2.3330 C.3     
  30 C30            2.7978     8.3237     0.3672 C.3     
@<TRIPOS>BOND
   1    1   15 ar
   2    1    2 1
   3    1    3 ar
   4    3    4 ar
   5    4    5 ar
   6    4   21 1
   7    5    6 ar
   8    6   15 ar
   9    6    7 1
  10    7    8 1
  11    8    9 1
  12    8   10 1
  13    8   11 1
  14   11   12 1
  15   11   19 1
  16   11   13 1
  17   13   14 1
  18   13   15 1
  19   13   16 1
  20   16   17 1
  21   17   18 2
  22   17   20 1
  23   18   19 1
  24   21   22 1
  25   21   29 1
  26   21   30 1
  27   22   23 1
  28   23   24 1
  29   24   25 1
  30   25   26 1
  31   26   27 1
  32   27   28 1

#	End of record

